geometry optimzed in LAMMPS
_audit_creation_date              2020-11-30 
_audit_creation_method            'lammps2cif' 
_symmetry_space_group_name_H-M    'P1' 
_symmetry_Int_Tables_number       1 
_symmetry_cell_setting            triclinic 
loop_ 
_symmetry_equiv_pos_as_xyz 
  x,y,z 
_cell_length_a                    49.9372958 
_cell_length_b                    52.476992874451064 
_cell_length_c                    54.03593664627479 
_cell_angle_alpha                 89.67361710083853 
_cell_angle_beta                  88.96485048906109 
_cell_angle_gamma                 119.09502007670342 
loop_ 
_atom_site_label 
_atom_site_type_symbol 
_atom_site_fract_x 
_atom_site_fract_y 
_atom_site_fract_z 
_atom_site_charge 
O1          O  0.34908745  0.11837148  0.02977335    -0.79100
O2          O  0.35880040  0.22958824  0.97634235    -0.63800
O3          O  0.34446442  0.16927318  0.02410595    -1.10400
C4          C  0.26606749  0.11089981  0.96835209     1.07800
O5          O  0.30891805  0.21314116  0.97885777    -0.77000
O6          O  0.26177436  0.16238197  0.99432878    -0.64500
Ni7        Ni  0.37478645  0.15979004  0.03380706     1.34900
C8          C  0.26287011  0.15636159  0.01688379     0.86600
O9          O  0.38768453  0.22851589  0.01897829    -0.77500
O10         O  0.40302706  0.20014765  0.03887816    -0.87800
C11         C  0.33544726  0.23284440  0.97198033     0.86100
O12         O  0.39219334  0.16152752  0.00200480    -0.66000
O13         O  0.27204640  0.13433458  0.95657216    -0.85300
C14         C  0.39686491  0.17746311  0.98296597     0.87000
C15         C  0.40619065  0.22508723  0.03304328     1.08500
H16         H  0.33127807  0.16301321  0.96911196     0.40300
O17         O  0.32211155  0.16857357  0.98243220    -1.07900
O18         O  0.28310311  0.15036632  0.02488064    -0.64600
Ni19       Ni  0.31037552  0.13955814  0.00746016     1.26300
O20         O  0.38456193  0.19379344  0.98044018    -0.64800
O21         O  0.27703211  0.11021027  0.98932003    -0.77100
C22         C  0.32110572  0.10242820  0.03622829     0.86300
O23         O  0.30170375  0.11106121  0.03296859    -0.64300
Ni24       Ni  0.29115022  0.17382623  0.96769686     1.27400
Ni25       Ni  0.35452299  0.19959906  0.00000780     1.26100
H26         H  0.33719254  0.17436455  0.03895317     0.40900
O27         O  0.40396929  0.19121404  0.52306926    -0.79100
O28         O  0.30249670  0.19541912  0.47077094    -0.63800
O29         O  0.34359837  0.17725043  0.52107979    -1.10400
C30         C  0.32150704  0.09552087  0.47310930     1.07800
O31         O  0.26466675  0.15000660  0.47353446    -0.77000
O32         O  0.26960898  0.11319540  0.50455494    -0.64500
Ni33       Ni  0.37925664  0.20736876  0.53500518     1.34900
C34         C  0.28199946  0.10615676  0.52152756     0.86600
O35         O  0.32531329  0.21990216  0.51514014    -0.77500
O36         O  0.35528793  0.22410908  0.54735572    -0.87800
C37         C  0.27532338  0.17613206  0.46589488     0.86100
O38         O  0.39506274  0.23520621  0.50803500    -0.66000
O39         O  0.29764673  0.09765155  0.46875155    -0.85300
C40         C  0.38761642  0.23288219  0.48549742     0.87000
C41         C  0.33587604  0.22934417  0.53661865     1.08500
H42         H  0.33468026  0.16177523  0.46446016     0.40300
O43         O  0.32273404  0.15520955  0.47968209    -1.07900
O44         O  0.31108773  0.11716145  0.52296075    -0.64600
Ni45       Ni  0.34573454  0.14675603  0.50328940     1.26300
O46         O  0.36161180  0.21325248  0.47828839    -0.64800
O47         O  0.34467611  0.11524634  0.48435990    -0.77100
C48         C  0.39952358  0.16639227  0.53027641     0.86300
O49         O  0.37362778  0.14375201  0.52643230    -0.64300
Ni50       Ni  0.28322287  0.12537345  0.47163263     1.27400
Ni51       Ni  0.32404942  0.18780701  0.49643847     1.26100
H52         H  0.32894421  0.16836926  0.53464764     0.40900
N53         N  0.40487256  0.00053756  0.71049075    -0.34800
N54         N  0.37021595  0.45478423  0.74803474    -0.55300
N55         N  0.39907732  0.00051126  0.78482924    -0.34800
N56         N  0.42382682  0.04585243  0.74730940    -0.55300
C57         C  0.38148662  0.47767511  0.69696579     0.28800
C58         C  0.41248768  0.02462795  0.69651508     0.28800
C59         C  0.37270195  0.47603920  0.79750133     0.28800
C60         C  0.40133051  0.02380495  0.79720186     0.28800
C61         C  0.36980321  0.43909079  0.72818309     0.37400
C62         C  0.36852586  0.43877324  0.76828154     0.37400
C63         C  0.44217012  0.06100563  0.72784513     0.37400
C64         C  0.43700442  0.06124124  0.76778490     0.37400
C65         C  0.37763225  0.48769373  0.67426059    -0.20100
C66         C  0.39823753  0.01650874  0.67387459    -0.20100
C67         C  0.36198402  0.48473479  0.81780556    -0.20100
C68         C  0.38191619  0.01420293  0.81791443    -0.20100
C69         C  0.36726631  0.41277434  0.73572555    -0.21100
C70         C  0.36728116  0.41285007  0.76116367    -0.21100
C71         C  0.46733131  0.08606257  0.73599704    -0.21100
C72         C  0.46399970  0.08621899  0.76135651    -0.21100
C73         C  0.37098602  0.44821051  0.70339990    -0.16500
C74         C  0.43485826  0.05318856  0.70285084    -0.16500
C75         C  0.42379276  0.05309120  0.79189201    -0.16500
C76         C  0.36654726  0.44721495  0.79279621    -0.16500
H77         H  0.36459469  0.47470985  0.65889966     0.16400
H78         H  0.40020809  0.03071522  0.65853236     0.16400
H79         H  0.34542644  0.47078339  0.83176842     0.16400
H80         H  0.37899529  0.02749419  0.83179319     0.16400
H81         H  0.36588496  0.39552740  0.72409980     0.14700
H82         H  0.36639399  0.39566673  0.77286662     0.14700
H83         H  0.48594408  0.10254631  0.72482746     0.14700
H84         H  0.47955283  0.10271145  0.77367318     0.14700
H85         H  0.41521050  0.00004313  0.72691392     0.28000
H86         H  0.41372543  0.00115123  0.77055598     0.28000
N87         N  0.12148832  0.11600290  0.71627637    -0.34800
N88         N  0.09259402  0.13682366  0.75121929    -0.55300
N89         N  0.10697070  0.10636922  0.78883134    -0.34800
N90         N  0.13730511  0.08706198  0.75336416    -0.55300
C91         C  0.11851920  0.13621537  0.70292660     0.28800
C92         C  0.14203797  0.11066298  0.70412525     0.28800
C93         C  0.09997825  0.12410271  0.80221652     0.28800
C94         C  0.12362149  0.09854784  0.80333274     0.28800
C95         C  0.08035068  0.13958958  0.72999050     0.37400
C96         C  0.07354317  0.13560583  0.76977108     0.37400
C97         C  0.14001308  0.07362001  0.73305009     0.37400
C98         C  0.13272620  0.06900798  0.77269845     0.37400
C99         C  0.13831529  0.14476820  0.68247301    -0.20100
C100        C  0.15330045  0.12860323  0.68326416    -0.20100
C101        C  0.11298960  0.12826759  0.82530348    -0.20100
C102        C  0.12816298  0.11226652  0.82595030    -0.20100
C103        C  0.05346608  0.14040339  0.73507868    -0.21100
C104        C  0.04931332  0.13814665  0.76039667    -0.21100
C105        C  0.13720126  0.04679556  0.73944815    -0.21100
C106        C  0.13263211  0.04389783  0.76472671    -0.21100
C107        C  0.09407770  0.14215879  0.70637195    -0.16500
C108        C  0.14587372  0.08624901  0.70913624    -0.16500
C109        C  0.13107161  0.07647866  0.79745676    -0.16500
C110        C  0.07878654  0.13310330  0.79499200    -0.16500
H111        H  0.14016422  0.15959978  0.66770370     0.16400
H112        H  0.16901477  0.12853482  0.66923596     0.16400
H113        H  0.11082834  0.14069301  0.84037506     0.16400
H114        H  0.14003565  0.10998824  0.84164609     0.16400
H115        H  0.03843853  0.14245184  0.72202531     0.14700
H116        H  0.03063846  0.13829573  0.77068364     0.14700
H117        H  0.13829155  0.03102281  0.72727503     0.14700
H118        H  0.12968127  0.02555368  0.77596209     0.14700
H119        H  0.10599469  0.10258323  0.72995864     0.28000
H120        H  0.09690920  0.09654851  0.77230178     0.28000
N121        N  0.00841390  0.39244462  0.78668056    -0.34800
N122        N  0.05287087  0.42531914  0.74897347    -0.55300
N123        N  0.00402855  0.39805874  0.71256377    -0.34800
N124        N  0.46063852  0.36189014  0.75081109    -0.55300
C125        C  0.03474655  0.40166596  0.79904881     0.28800
C126        C  0.48584306  0.37067813  0.80046760     0.28800
C127        C  0.02909124  0.41265287  0.69759099     0.28800
C128        C  0.48037221  0.38053276  0.69820592     0.28800
C129        C  0.06827375  0.43987817  0.76910679     0.37400
C130        C  0.06588961  0.44358047  0.72942571     0.37400
C131        C  0.44300403  0.35349712  0.77178556     0.37400
C132        C  0.44112535  0.35368374  0.73174478     0.37400
C133        C  0.02902692  0.38491531  0.82049123    -0.20100
C134        C  0.49777861  0.36570247  0.82170616    -0.20100
C135        C  0.02137890  0.40382492  0.67342944    -0.20100
C136        C  0.49067433  0.38480748  0.67367831    -0.20100
C137        C  0.09118186  0.46757760  0.76231962    -0.21100
C138        C  0.08983852  0.46985085  0.73707358    -0.21100
C139        C  0.41231076  0.33870846  0.76594456    -0.21100
C140        C  0.41121088  0.33743659  0.74075393    -0.21100
C141        C  0.06228174  0.42758100  0.79323956    -0.16500
C142        C  0.45446445  0.35889406  0.79603641    -0.16500
C143        C  0.44950036  0.36242595  0.70653981    -0.16500
C144        C  0.05768730  0.43608769  0.70461760    -0.16500
H145        H  0.04519478  0.38733267  0.83458047     0.16400
H146        H  0.48519911  0.35055989  0.83670308     0.16400
H147        H  0.03597149  0.41142731  0.65698023     0.16400
H148        H  0.47787507  0.37598012  0.65713262     0.16400
H149        H  0.10714371  0.48431159  0.77426745     0.14700
H150        H  0.10463565  0.48866919  0.72563049     0.14700
H151        H  0.39240354  0.32961936  0.77816141     0.14700
H152        H  0.39032650  0.32676001  0.73044145     0.14700
H153        H  0.00472112  0.40353911  0.77228843     0.28000
H154        H  0.00241582  0.40275175  0.73094575     0.28000
C155        C  0.49552323  0.16221344  0.58615054     0.04100
C156        C  0.02801927  0.18051658  0.58608566     0.04100
C157        C  0.04495327  0.17613990  0.60458014    -0.16400
C158        C  0.03060323  0.15544211  0.62354718     0.04100
C159        C  0.49839863  0.13810173  0.62412763     0.04100
C160        C  0.48140438  0.14137786  0.60534996    -0.16400
H161        H  0.45665477  0.12792914  0.60607715     0.06100
H162        H  0.06973453  0.18927972  0.60444897     0.06100
C163        C  0.19206660  0.02367020  0.59111265     0.04100
C164        C  0.17133074  0.49603111  0.58835759     0.04100
C165        C  0.14769434  0.48275333  0.60628009    -0.16400
C166        C  0.14470927  0.49859452  0.62575312     0.04100
C167        C  0.16503416  0.02447805  0.62898116     0.04100
C168        C  0.18795960  0.03885456  0.61085522    -0.16400
H169        H  0.20257151  0.06226672  0.61203355     0.06100
H170        H  0.13209452  0.45946373  0.60572549     0.06100
C171        C  0.32690489  0.34395775  0.91195340     0.04100
C172        C  0.34489805  0.32973669  0.91348402     0.04100
C173        C  0.36633960  0.33445475  0.89440750    -0.16400
C174        C  0.37062400  0.35280166  0.87409615     0.04100
C175        C  0.35348515  0.36768993  0.87301414     0.04100
C176        C  0.33216375  0.36325160  0.89198055    -0.16400
H177        H  0.31923508  0.37489828  0.89103380     0.06100
H178        H  0.37936907  0.32288398  0.89495844     0.06100
C179        C  0.31074503  0.32768746  0.59773093     0.04100
C180        C  0.32263700  0.30848477  0.60073718     0.04100
C181        C  0.34151307  0.31210088  0.62085427    -0.16400
C182        C  0.35170364  0.33619353  0.63667059     0.04100
C183        C  0.33977997  0.35581226  0.63320079     0.04100
C184        C  0.31906545  0.35074323  0.61419888    -0.16400
H185        H  0.30975557  0.36544177  0.61182220     0.06100
H186        H  0.34907372  0.29618196  0.62360124     0.06100
C187        C  0.17444096  0.48710813  0.90894658     0.04100
C188        C  0.18419951  0.01609474  0.91053532     0.04100
C189        C  0.17391041  0.02957222  0.89361561    -0.16400
C190        C  0.15485219  0.01404402  0.87440215     0.04100
C191        C  0.14622274  0.48648090  0.87222775     0.04100
C192        C  0.15338734  0.47170264  0.89041582    -0.16400
H193        H  0.14268910  0.44811039  0.89005681     0.06100
H194        H  0.18142944  0.05269004  0.89506643     0.06100
C195        C  0.00637790  0.17831725  0.90746107     0.04100
C196        C  0.47411468  0.16547184  0.90674449     0.04100
C197        C  0.45857634  0.14559111  0.88772925    -0.16400
C198        C  0.47463689  0.13857652  0.86975658     0.04100
C199        C  0.00658976  0.15200371  0.87036370     0.04100
C200        C  0.02208173  0.17165756  0.88907118    -0.16400
H201        H  0.04691859  0.18220223  0.88913092     0.06100
H202        H  0.43377370  0.13491404  0.88729895     0.06100
O203        O  0.23135205  0.35270642  0.52047692    -0.79100
O204        O  0.12620641  0.36143572  0.47259951    -0.63800
O205        O  0.17407957  0.34651011  0.51947063    -1.10400
C206        C  0.15533840  0.26903390  0.46406762     1.07800
O207        O  0.09472054  0.31493926  0.47953171    -0.77000
O208        O  0.09935024  0.26923937  0.49407814    -0.64500
Ni209      Ni  0.21217926  0.37483893  0.53077905     1.34900
C210        C  0.10907094  0.26954281  0.51552922     0.86600
O211        O  0.15688993  0.39024888  0.51453651    -0.77500
O212        O  0.19489033  0.39856284  0.54085532    -0.87800
C213        C  0.09968267  0.33904690  0.47025904     0.86100
O214        O  0.22778832  0.39736574  0.50137617    -0.66000
O215        O  0.13499148  0.27401796  0.45453430    -0.85300
C216        C  0.21767043  0.39898428  0.48047619     0.87000
C217        C  0.17513166  0.40470597  0.53199095     1.08500
H218        H  0.16604874  0.33208788  0.46430095     0.40300
O219        O  0.15239121  0.32447560  0.47857466    -1.07900
O220        O  0.13632947  0.28762906  0.52169407    -0.64600
Ni221      Ni  0.17278699  0.31397740  0.50234055     1.26300
O222        O  0.18920949  0.38370424  0.47540185    -0.64800
O223        O  0.17056711  0.28185713  0.48326694    -0.77100
C224        C  0.22369946  0.32782487  0.52970135     0.86300
O225        O  0.19658582  0.30723001  0.52662204    -0.64300
Ni226      Ni  0.11514659  0.29514098  0.46654055     1.27400
Ni227      Ni  0.15317651  0.35699375  0.49581427     1.26100
H228        H  0.16076278  0.33916470  0.53400675     0.40900
O229        O  0.19201876  0.28530188  0.02212096    -0.79100
O230        O  0.19601463  0.38922994  0.96819468    -0.63800
O231        O  0.17929042  0.33048943  0.01737791    -1.10400
C232        C  0.09609494  0.27284669  0.96500381     1.07800
O233        O  0.14774592  0.37845413  0.97266904    -0.77000
O234        O  0.10426030  0.33216880  0.99626740    -0.64500
Ni235      Ni  0.21087266  0.32549963  0.03139304     1.34900
C236        C  0.10262967  0.31914942  0.01647259     0.86600
O237        O  0.22209402  0.38994206  0.01111964    -0.77500
O238        O  0.23181398  0.36567546  0.04111153    -0.87800
C239        C  0.17509655  0.39618476  0.96586307     0.86100
O240        O  0.23736094  0.33477465  0.00323212    -0.66000
O241        O  0.09983164  0.29754982  0.95772538    -0.85300
C242        C  0.23695358  0.34335153  0.98137325     0.87000
C243        C  0.23572787  0.38914813  0.03057249     1.08500
H244        H  0.16409921  0.32494751  0.96132000     0.40300
O245        O  0.15616107  0.32964091  0.97601102    -1.07900
O246        O  0.11747258  0.30538568  0.01997660    -0.64600
Ni247      Ni  0.14663905  0.29929376  0.99995172     1.26300
O248        O  0.21810566  0.35178145  0.97452824    -0.64800
O249        O  0.11307962  0.26992157  0.98114823    -0.77100
C250        C  0.16511930  0.26590235  0.02858275     0.86300
O251        O  0.14219496  0.26957208  0.02377739    -0.64300
Ni252      Ni  0.12506631  0.33761003  0.96548227     1.27400
Ni253      Ni  0.18943740  0.36009826  0.99287823     1.26100
H254        H  0.17030055  0.33554325  0.03116989     0.40900
N255        N  0.48469403  0.10113921  0.21422654    -0.34800
N256        N  0.44087329  0.09272646  0.25379142    -0.55300
N257        N  0.49122142  0.11398931  0.28783187    -0.34800
N258        N  0.03532195  0.12504927  0.24870454    -0.55300
C259        C  0.45966267  0.09496594  0.20071083     0.28800
C260        C  0.00926369  0.11228486  0.19855176     0.28800
C261        C  0.46822159  0.11308762  0.30194427     0.28800
C262        C  0.01781612  0.13144422  0.29908270     0.28800
C263        C  0.42082679  0.07949211  0.23547556     0.37400
C264        C  0.42462081  0.08329421  0.27541933     0.37400
C265        C  0.04893255  0.11994475  0.22902089     0.37400
C266        C  0.05223622  0.12681264  0.26851933     0.37400
C267        C  0.46893288  0.10209288  0.17602790    -0.20100
C268        C  0.00000409  0.11399916  0.17493013    -0.20100
C269        C  0.48013302  0.13111256  0.32206921    -0.20100
C270        C  0.01164782  0.14290576  0.32013711    -0.20100
C271        C  0.39144628  0.06349016  0.24556182    -0.21100
C272        C  0.39408490  0.06444971  0.27065905    -0.21100
C273        C  0.07466489  0.11858438  0.23625285    -0.21100
C274        C  0.07659488  0.12261903  0.26137518    -0.21100
C275        C  0.42868097  0.08104578  0.20987741    -0.16500
C276        C  0.03934760  0.11830366  0.20442399    -0.16500
C277        C  0.04644110  0.13361394  0.29261228    -0.16500
C278        C  0.43705959  0.09256553  0.29917446    -0.16500
H279        H  0.45524348  0.09864935  0.15993281     0.16400
H280        H  0.01403944  0.12185103  0.15819887     0.16400
H281        H  0.46737341  0.13402438  0.33716086     0.16400
H282        H  0.02794133  0.15713927  0.33342130     0.16400
H283        H  0.37004049  0.05155501  0.23613228     0.14700
H284        H  0.37512778  0.05248981  0.28345615     0.14700
H285        H  0.09026601  0.11496946  0.22459449     0.14700
H286        H  0.09397461  0.12256943  0.27297236     0.14700
H287        H  0.48442962  0.09448222  0.23239508     0.28000
H288        H  0.48847919  0.09914230  0.27409417     0.28000
N289        N  0.38915144  0.39268585  0.28303481    -0.34800
N290        N  0.41089961  0.36766297  0.24559283    -0.55300
N291        N  0.40268954  0.40225233  0.20783117    -0.34800
N292        N  0.38206967  0.42854776  0.24511097    -0.55300
C293        C  0.40292442  0.38085010  0.29689392     0.28800
C294        C  0.38622283  0.41250111  0.29716696     0.28800
C295        C  0.42111825  0.39382150  0.19603154     0.28800
C296        C  0.40501462  0.42559505  0.19526701     0.28800
C297        C  0.40629616  0.34934875  0.26477552     0.37400
C298        C  0.41237092  0.35397250  0.22502040     0.37400
C299        C  0.36878761  0.43471086  0.26453427     0.37400
C300        C  0.37525710  0.43884155  0.22447499     0.37400
C301        C  0.40893457  0.39345513  0.32000730    -0.20100
C302        C  0.39737295  0.41235543  0.32053344    -0.20100
C303        C  0.43589080  0.41253254  0.17605859    -0.20100
C304        C  0.42510898  0.43213823  0.17522045    -0.20100
C305        C  0.40411329  0.32352844  0.25640138    -0.21100
C306        C  0.40775351  0.32637506  0.23106176    -0.21100
C307        C  0.35393948  0.44951473  0.25614780    -0.21100
C308        C  0.35765536  0.45172250  0.23079406    -0.21100
C309        C  0.40837363  0.35770573  0.28965824    -0.16500
C310        C  0.37274375  0.42981008  0.28976312    -0.16500
C311        C  0.38728800  0.43923057  0.20042300    -0.16500
C312        C  0.42258242  0.36818081  0.20179040    -0.16500
H313        H  0.42002126  0.38931886  0.33530486     0.16400
H314        H  0.39740024  0.42434200  0.33669345     0.16400
H315        H  0.45217777  0.41180004  0.16300622     0.16400
H316        H  0.43140656  0.44916128  0.16136001     0.16400
H317        H  0.40128388  0.30509239  0.26747570     0.14700
H318        H  0.40839700  0.31056772  0.21863719     0.14700
H319        H  0.34223369  0.45847714  0.26706112     0.14700
H320        H  0.34924789  0.46247448  0.21854218     0.14700
H321        H  0.37955757  0.38566051  0.26578597     0.28000
H322        H  0.38641958  0.39049079  0.22166439     0.28000
C323        C  0.32946268  0.00885174  0.41573630     0.04100
C324        C  0.31277254  0.47844635  0.41027281     0.04100
C325        C  0.31978409  0.46645627  0.38937975    -0.16400
C326        C  0.34346894  0.48416859  0.37222533     0.04100
C327        C  0.35837364  0.01589122  0.37703675     0.04100
C328        C  0.35169340  0.02688582  0.39820713    -0.16400
H329        H  0.36352893  0.05034008  0.40068908     0.06100
H330        H  0.30694746  0.44311768  0.38667373     0.06100
N331        N  0.09654051  0.49675207  0.28808600    -0.34800
N332        N  0.07744499  0.45147974  0.25091825    -0.55300
N333        N  0.10229512  0.49651118  0.21339220    -0.34800
N334        N  0.12413591  0.04162074  0.25100951    -0.55300
C335        C  0.08898119  0.47267786  0.30213827     0.28800
C336        C  0.11431201  0.02079056  0.30284039     0.28800
C337        C  0.09856920  0.47311401  0.20037950     0.28800
C338        C  0.12107554  0.01896040  0.20124356     0.28800
C339        C  0.06141809  0.43496500  0.27072868     0.37400
C340        C  0.06558262  0.43488531  0.23076627     0.37400
C341        C  0.12469762  0.05801133  0.27042611     0.37400
C342        C  0.12520802  0.05672157  0.23030795     0.37400
C343        C  0.10265047  0.48089822  0.32493980    -0.20100
C344        C  0.11807974  0.01164672  0.32602177    -0.20100
C345        C  0.11648184  0.48233139  0.17887746    -0.20100
C346        C  0.13000049  0.01027647  0.17987109    -0.20100
C347        C  0.03945074  0.40758773  0.26317416    -0.21100
C348        C  0.04213249  0.40754148  0.23779018    -0.21100
C349        C  0.12638415  0.08375094  0.26206951    -0.21100
C350        C  0.12637374  0.08280028  0.23664080    -0.21100
C351        C  0.06797070  0.44374831  0.29555685    -0.16500
C352        C  0.12469146  0.05018706  0.29552513    -0.16500
C353        C  0.12686020  0.04762624  0.20596063    -0.16500
C354        C  0.07705181  0.44388375  0.20635353    -0.16500
H355        H  0.10059513  0.46669820  0.34031532     0.16400
H356        H  0.13103540  0.02522536  0.34114254     0.16400
H357        H  0.11791912  0.46881649  0.16442932     0.16400
H358        H  0.14477276  0.02414306  0.16497429     0.16400
H359        H  0.02355544  0.38941451  0.27475825     0.14700
H360        H  0.02872115  0.38938909  0.22592199     0.14700
H361        H  0.12734165  0.10126281  0.27314005     0.14700
H362        H  0.12749646  0.09957768  0.22429840     0.14700
H363        H  0.08646712  0.49707199  0.27147941     0.28000
H364        H  0.08859772  0.49615145  0.22830023     0.28000
C365        C  0.31790586  0.01144722  0.09442774     0.04100
C366        C  0.31779674  0.48588693  0.08786699     0.04100
C367        C  0.33334057  0.47607422  0.10317504    -0.16400
C368        C  0.34788598  0.49091907  0.12460384     0.04100
C369        C  0.34599706  0.01574170  0.13246299     0.04100
C370        C  0.33143218  0.02598462  0.11630469    -0.16400
H371        H  0.33119738  0.04603451  0.12044682     0.06100
H372        H  0.33294799  0.45570802  0.09898230     0.06100
C373        C  0.16546924  0.18583374  0.40197491     0.04100
C374        C  0.18519822  0.17353128  0.40097767     0.04100
C375        C  0.18047767  0.15244334  0.38296971    -0.16400
C376        C  0.15682941  0.14366193  0.36585993     0.04100
C377        C  0.13888882  0.15779469  0.36577827     0.04100
C378        C  0.14331733  0.17845114  0.38375568    -0.16400
H379        H  0.12889442  0.18862223  0.38379150     0.06100
H380        H  0.19454532  0.14192035  0.38294236     0.06100
C381        C  0.17091541  0.15255571  0.08601054     0.04100
C382        C  0.15183446  0.16579410  0.08528760     0.04100
C383        C  0.12943631  0.15876234  0.10420858    -0.16400
C384        C  0.12556750  0.13920188  0.12344319     0.04100
C385        C  0.14431242  0.12605182  0.12396754     0.04100
C386        C  0.16646528  0.13264101  0.10527774    -0.16400
H387        H  0.18051423  0.12209816  0.10579505     0.06100
H388        H  0.11550186  0.16942667  0.10452214     0.06100
C389        C  0.47053194  0.31486853  0.41062578     0.04100
C390        C  0.00221000  0.33630831  0.41224244     0.04100
C391        C  0.01616476  0.35651281  0.39266132    -0.16400
C392        C  0.00025757  0.35628613  0.37154434     0.04100
C393        C  0.46870197  0.33457262  0.36943273     0.04100
C394        C  0.45469534  0.31431842  0.38909839    -0.16400
H395        H  0.43088714  0.29778481  0.38771444     0.06100
H396        H  0.04032394  0.37241218  0.39349365     0.06100
C397        C  0.02700687  0.33050762  0.09386676     0.04100
C398        C  0.49448263  0.31598613  0.09285568     0.04100
C399        C  0.47754409  0.32013934  0.11170591    -0.16400
C400        C  0.49175764  0.34031599  0.13040044     0.04100
C401        C  0.02451636  0.35631034  0.13075394     0.04100
C402        C  0.04159091  0.35042471  0.11292402    -0.16400
H403        H  0.06641926  0.36250102  0.11312833     0.06100
H404        H  0.45273161  0.30746507  0.11166962     0.06100
C405        C  0.04282657  0.37916107  0.33968180     0.25400
C406        C  0.01770307  0.37894979  0.35219030    -0.22700
C407        C  0.01006240  0.40077741  0.34660171     0.20300
C408        C  0.02699401  0.42220437  0.32857945     0.25400
C409        C  0.05147085  0.42187563  0.31563560    -0.22600
C410        C  0.05926113  0.40017894  0.32124810     0.20300
F411        F  0.08259877  0.39926635  0.30873677    -0.12600
F412        F  0.05069050  0.35831829  0.34478210    -0.14900
F413        F  0.01928031  0.44312114  0.32341853    -0.15000
F414        F  0.48588157  0.40115268  0.35868186    -0.12600
C415        C  0.06020213  0.37851888  0.16632347     0.25400
C416        C  0.04087693  0.38031636  0.14854948    -0.22700
C417        C  0.03525690  0.40410484  0.14900769     0.20300
C418        C  0.04728538  0.42480332  0.16765284     0.25400
C419        C  0.06550371  0.42234311  0.18602187    -0.22600
C420        C  0.07230640  0.39933049  0.18499775     0.20300
F421        F  0.09019543  0.39678126  0.20237673    -0.12600
F422        F  0.06578419  0.35565223  0.16648078    -0.14900
F423        F  0.54028637  0.44694490  0.16805736    -0.15000
F424        F  0.51721887  0.40683681  0.13158094    -0.12600
C425        C  0.16312518  0.09875201  0.31319420     0.25400
C426        C  0.13427222  0.07328892  0.31482954    -0.22700
C427        C  0.11421136  0.07032211  0.33464689     0.20300
C428        C  0.12247480  0.09250137  0.35195936     0.25400
C429        C  0.15012306  0.11887067  0.34911192    -0.22600
C430        C  0.17088362  0.12140964  0.33009623     0.20300
F431        F  0.19848315  0.14598527  0.32771759    -0.12600
F432        F  0.18365294  0.10177831  0.29503238    -0.14900
F433        F  0.10362290  0.08800034  0.37181429    -0.15000
F434        F  0.08627429  0.04612968  0.33701503    -0.12600
C435        C  0.11265712  0.05825348  0.16424929     0.25400
C436        C  0.13271871  0.06772004  0.18434156    -0.22700
C437        C  0.15808537  0.09609094  0.18343243     0.20300
C438        C  0.16193677  0.11515833  0.16375187     0.25400
C439        C  0.14140551  0.10567095  0.14414593    -0.22600
C440        C  0.11771238  0.07673205  0.14398156     0.20300
F441        F  0.09950349  0.06631600  0.12408925    -0.12600
F442        F  0.08792104  0.03109719  0.16427875    -0.14900
F443        F  0.18558314  0.14290787  0.16383961    -0.15000
F444        F  0.17897764  0.10537335  0.20165069    -0.12600
C445        C  0.44760574  0.34386652  0.30403927     0.25400
C446        C  0.41984196  0.34419946  0.30832530    -0.22700
C447        C  0.40507483  0.33466440  0.33161478     0.20300
C448        C  0.42051995  0.33085030  0.35142728     0.25400
C449        C  0.44987178  0.33357472  0.34774923    -0.22600
C450        C  0.46149040  0.33697162  0.32327813     0.20300
F451        F  0.98727258  0.33487633  0.31802178    -0.12600
F452        F  0.46227341  0.35176118  0.28162207    -0.14900
F453        F  0.40747580  0.32645712  0.37441691    -0.15000
F454        F  0.37680536  0.33173796  0.33575357    -0.12600
C455        C  0.46179577  0.35276196  0.19141567     0.25400
C456        C  0.43776953  0.35754063  0.18381426    -0.22700
C457        C  0.42962815  0.35374387  0.15877185     0.20300
C458        C  0.44724997  0.34841384  0.14136084     0.25400
C459        C  0.47188555  0.34446394  0.14896575    -0.22600
C460        C  0.47745192  0.34469927  0.17437048     0.20300
F461        F  0.99839840  0.33730809  0.18279832    -0.12600
F462        F  0.47072753  0.35661344  0.21529860    -0.14900
F463        F  0.44073664  0.34802235  0.11702140    -0.15000
F464        F  0.40541456  0.35648594  0.15100417    -0.12600
C465        C  0.38816796  0.46619862  0.32391078     0.25400
C466        C  0.36490157  0.44536048  0.30938744    -0.22700
C467        C  0.33428828  0.43796002  0.31506159     0.20300
C468        C  0.32734463  0.45130855  0.33481937     0.25400
C469        C  0.35060822  0.47064052  0.35043219    -0.22600
C470        C  0.38082295  0.47643125  0.34533745     0.20300
F471        F  0.40287757  0.48952518  0.36221021    -0.12600
F472        F  0.41806976  0.47477209  0.31848822    -0.14900
F473        F  0.29782523  0.44491299  0.33894929    -0.15000
F474        F  0.31112408  0.41768876  0.30158443    -0.12600
C475        C  0.39094489  0.49125596  0.14909381     0.25400
C476        C  0.36052853  0.47652413  0.14090965    -0.22700
C477        C  0.34043444  0.44848933  0.15062014     0.20300
C478        C  0.34966288  0.43648144  0.16951941     0.25400
C479        C  0.37901709  0.45223249  0.17931628    -0.22600
C480        C  0.39986834  0.47953548  0.16870064     0.20300
F481        F  0.42837752  0.49523323  0.17790523    -0.12600
F482        F  0.41116580  0.51784899  0.13938791    -0.14900
F483        F  0.32942137  0.40979157  0.17901727    -0.15000
F484        F  0.31097194  0.43364186  0.14314907    -0.12600
C485        C  0.36876362  0.05265306  0.34336916     0.25400
C486        C  0.37939555  0.03780206  0.35859265    -0.22700
C487        C  0.41092772  0.04737632  0.35855377     0.20300
C488        C  0.42965723  0.06485890  0.33907366     0.25400
C489        C  0.41838377  0.07754315  0.32196659    -0.22600
C490        C  0.38873689  0.07374531  0.32617863     0.20300
F491        F  0.37878880  0.08949797  0.31297803    -0.12600
F492        F  0.33931371  0.04720701  0.34561740    -0.14900
F493        F  0.45848481  0.06865365  0.33663349    -0.15000
F494        F  0.42370337  0.04041267  0.37756021    -0.12600
C495        C  0.39937707  0.08016720  0.17173740     0.25400
C496        C  0.40331737  0.06545263  0.19198493    -0.22700
C497        C  0.38318866  0.03524255  0.19471581     0.20300
C498        C  0.36035648  0.02056182  0.17754925     0.25400
C499        C  0.36191886  0.03374114  0.15445088    -0.22600
C500        C  0.38092276  0.06429293  0.15216110     0.20300
F501        F  0.38303894  0.07877328  0.13068966    -0.12600
F502        F  0.41508978  0.10975221  0.17005960    -0.14900
F503        F  0.33899163  0.49220453  0.18110546    -0.15000
F504        F  0.38588226  0.01970630  0.21375439    -0.12600
C505        C  0.06220500  0.12596468  0.33488324     0.25400
C506        C  0.07008463  0.14117863  0.31198553    -0.22700
C507        C  0.10081764  0.16270856  0.30740581     0.20300
C508        C  0.12336911  0.16737933  0.32457111     0.25400
C509        C  0.11534401  0.15173489  0.34710851    -0.22600
C510        C  0.08446411  0.13202610  0.35258205     0.20300
F511        F  0.07582578  0.11871449  0.37516411    -0.12600
F512        F  0.03297733  0.10491632  0.34008280    -0.14900
F513        F  0.15296665  0.18760342  0.31945510    -0.15000
F514        F  0.10901712  0.17904457  0.28621387    -0.12600
C515        C  0.08998711  0.14961780  0.18222520     0.25400
C516        C  0.06187651  0.12339736  0.18380605    -0.22700
C517        C  0.05472885  0.10275207  0.16499896     0.20300
C518        C  0.07457729  0.10877535  0.14459364     0.25400
C519        C  0.10318880  0.13419519  0.14373521    -0.22600
C520        C  0.11073662  0.15466544  0.16259785     0.20300
F521        F  0.13805783  0.17970780  0.16176465    -0.12600
F522        F  0.09711063  0.17051730  0.19948591    -0.14900
F523        F  0.06547235  0.09017081  0.12534896    -0.15000
F524        F  0.02808218  0.07705364  0.16606844    -0.12600
C525        C  0.13359336  0.21278529  0.04222433     0.25400
C526        C  0.16164463  0.23900137  0.04127523    -0.22700
C527        C  0.18713394  0.23962795  0.05293069     0.20300
C528        C  0.18436822  0.21524802  0.06585170     0.25400
C529        C  0.15624538  0.18933144  0.06730806    -0.22600
C530        C  0.13095698  0.18823041  0.05503807     0.20300
F531        F  0.10331822  0.16354490  0.05617149    -0.12600
F532        F  0.10862942  0.21091495  0.03097004    -0.14900
F533        F  0.20873292  0.21783430  0.07858278    -0.15000
F534        F  0.21464637  0.26444531  0.05308614    -0.12600
C535        C  0.06364962  0.33337574  0.03139514     0.25400
C536        C  0.08253921  0.32083105  0.03651094    -0.22700
C537        C  0.08252195  0.31116822  0.06093949     0.20300
C538        C  0.06453669  0.31437784  0.07963549     0.25400
C539        C  0.04603196  0.32696779  0.07426199    -0.22600
C540        C  0.04581362  0.33644854  0.05005749     0.20300
F541        F  0.02865442  0.34928597  0.04454504    -0.12600
F542        F  0.06231436  0.34294874  0.00828505    -0.14900
F543        F  0.06480381  0.30480057  0.10297330    -0.15000
F544        F  0.10011168  0.29894738  0.06690020    -0.12600
C545        C  0.28878845  0.42799603  0.03886669     0.25400
C546        C  0.25707362  0.41692851  0.04172872    -0.22700
C547        C  0.24581799  0.43149392  0.05670311     0.20300
C548        C  0.26598113  0.45559407  0.07030989     0.25400
C549        C  0.29774958  0.46570492  0.06879594    -0.22600
C550        C  0.30906851  0.45234144  0.05223149     0.20300
F551        F  0.33965090  0.46200302  0.04994717    -0.12600
F552        F  0.29997623  0.41460934  0.02374991    -0.14900
F553        F  0.25423621  0.46736345  0.08662757    -0.15000
F554        F  0.21516108  0.42120989  0.05937197    -0.12600
C555        C  0.19117998  0.23359436  0.42467318     0.25400
C556        C  0.16591985  0.20557501  0.42184079    -0.22700
C557        C  0.13877727  0.19775430  0.43567137     0.20300
C558        C  0.13610233  0.21812886  0.45051997     0.25400
C559        C  0.16063680  0.24659667  0.45218411    -0.22600
C560        C  0.18863701  0.25389957  0.44002589     0.20300
F561        F  0.21273146  0.28126808  0.44162819    -0.12600
F562        F  0.21743214  0.24199977  0.41122140    -0.14900
F563        F  0.10912901  0.21036067  0.46270876    -0.15000
F564        F  0.11422243  0.17067606  0.43376430    -0.12600
C565        C  0.04462755  0.36214012  0.44263067     0.25400
C566        C  0.02313937  0.33598578  0.43142087    -0.22700
C567        C  0.02652129  0.31116152  0.43415513     0.20300
C568        C  0.05134663  0.31259864  0.44672556     0.25400
C569        C  0.07381453  0.33903877  0.45693757    -0.22600
C570        C  0.06984148  0.36370477  0.45516508     0.20300
F571        F  0.09015226  0.38917781  0.46556767    -0.12600
F572        F  0.04171863  0.38647993  0.44061760    -0.14900
F573        F  0.05405148  0.28807781  0.44779409    -0.15000
F574        F  0.00715391  0.28590573  0.42293569    -0.12600
C575        C  0.23398037  0.42354772  0.43756253     0.25400
C576        C  0.24123583  0.41986234  0.46199461    -0.22700
C577        C  0.27232666  0.43653265  0.46900317     0.20300
C578        C  0.29499591  0.45573137  0.45234997     0.25400
C579        C  0.28784573  0.45877307  0.42799850    -0.22600
C580        C  0.25713289  0.44259172  0.42070311     0.20300
F581        F  0.24950314  0.44571085  0.39732974    -0.12600
F582        F  0.20463457  0.40877687  0.42988674    -0.14900
F583        F  0.32436628  0.47095605  0.45997567    -0.15000
F584        F  0.28139811  0.43428536  0.49207800    -0.12600
C585        C  0.06968241  0.21969646  0.95298123     0.25400
C586        C  0.07049921  0.24686168  0.95341859    -0.22700
C587        C  0.04728219  0.24974635  0.94104861     0.20300
C588        C  0.02529166  0.22685422  0.92738111     0.25400
C589        C  0.02545455  0.20029501  0.92597385    -0.22600
C590        C  0.04737795  0.19667464  0.93940798     0.20300
F591        F  0.04800548  0.17112156  0.93844322    -0.12600
F592        F  0.09145230  0.21583882  0.96443146    -0.14900
F593        F  0.00521289  0.23147139  0.91404626    -0.15000
F594        F  0.04631031  0.27516814  0.94132544    -0.12600
C595        C  0.20299802  0.46152193  0.92243831     0.25400
C596        C  0.18090716  0.47017120  0.92752874    -0.22700
C597        C  0.16100858  0.45804073  0.94805465     0.20300
C598        C  0.16158336  0.43600861  0.96222695     0.25400
C599        C  0.18129062  0.42484590  0.95550632    -0.22600
C600        C  0.20310185  0.43881843  0.93625561     0.20300
F601        F  0.22248901  0.42876815  0.92931414    -0.12600
F602        F  0.22281473  0.47348778  0.90286749    -0.14900
F603        F  0.14136826  0.42426310  0.98161505    -0.15000
F604        F  0.13927034  0.46582556  0.95316054    -0.12600
C605        C  0.29840535  0.34755720  0.56049673     0.25400
C606        C  0.28966713  0.32464789  0.57765781    -0.22700
C607        C  0.25994443  0.30059832  0.57700803     0.20300
C608        C  0.23860354  0.30038424  0.56030151     0.25400
C609        C  0.24683311  0.32434128  0.54410479    -0.22600
C610        C  0.27747648  0.34729564  0.54372403     0.20300
F611        F  0.28714353  0.37034588  0.52775979    -0.12600
F612        F  0.32711340  0.37085427  0.56057951    -0.14900
F613        F  0.20959277  0.27760981  0.56100478    -0.15000
F614        F  0.25101285  0.27830800  0.59365900    -0.12600
C615        C  0.31041230  0.34814046  0.95522463     0.25400
C616        C  0.30289796  0.34034048  0.93050960    -0.22700
C617        C  0.27336155  0.33336023  0.92258522     0.20300
C618        C  0.25205290  0.33485372  0.93887819     0.25400
C619        C  0.25971750  0.34307399  0.96352159    -0.22600
C620        C  0.28900664  0.34932683  0.97160499     0.20300
F621        F  0.29736064  0.35763461  0.99524472    -0.12600
F622        F  0.33900089  0.35610591  0.96320748    -0.14900
F623        F  0.22374194  0.32768044  0.93067949    -0.15000
F624        F  0.26532477  0.32547111  0.89882046    -0.12600
C625        C  0.20150627  0.45228954  0.55405622     0.25400
C626        C  0.17474619  0.43055780  0.54289869    -0.22700
C627        C  0.14821074  0.43346464  0.54369900     0.20300
C628        C  0.14799005  0.45647902  0.55668527     0.25400
C629        C  0.17398781  0.47653031  0.56966699    -0.22600
C630        C  0.20090467  0.47451090  0.56770114     0.20300
F631        F  0.22608959  0.49268485  0.58051214    -0.12600
F632        F  0.22833265  0.45161046  0.55249703    -0.14900
F633        F  0.12186022  0.45844375  0.55757848    -0.15000
F634        F  0.12201358  0.41320031  0.53323648    -0.12600
C635        C  0.06798824  0.23211320  0.57575732     0.25400
C636        C  0.04579635  0.20436129  0.56760353    -0.22700
C637        C  0.04392665  0.19878395  0.54214593     0.20300
C638        C  0.06414799  0.22016985  0.52530587     0.25400
C639        C  0.08725057  0.24743254  0.53359374    -0.22600
C640        C  0.08862716  0.25328231  0.55898019     0.20300
F641        F  0.10972756  0.27960776  0.56757613    -0.12600
F642        F  0.07010259  0.23855199  0.60019849    -0.14900
F643        F  0.06192627  0.21361144  0.50089212    -0.15000
F644        F  0.02377591  0.17207926  0.53360957    -0.12600
C645        C  0.44028359  0.38129005  0.83106917     0.25400
C646        C  0.43395095  0.35624452  0.81740994    -0.22700
C647        C  0.40769470  0.32977166  0.82368810     0.20300
C648        C  0.38654445  0.32905928  0.84138579     0.25400
C649        C  0.39214347  0.35446233  0.85410182    -0.22600
C650        C  0.41992426  0.38017092  0.84964075     0.20300
F651        F  0.42809758  0.40380368  0.86397488    -0.12600
F652        F  0.46630445  0.40693904  0.82645604    -0.14900
F653        F  0.36068721  0.30343302  0.84637843    -0.15000
F654        F  0.40244457  0.30468610  0.81254513    -0.12600
C655        C  0.07361018  0.44828297  0.83607147     0.25400
C656        C  0.08428085  0.44273893  0.81348139    -0.22700
C657        C  0.11560946  0.45099183  0.81076580     0.20300
C658        C  0.13575090  0.46492342  0.83004371     0.25400
C659        C  0.12474410  0.46987252  0.85256423    -0.22600
C660        C  0.09343692  0.46066122  0.85570013     0.20300
F661        F  0.08225322  0.96813579  0.87351396    -0.12600
F662        F  0.04388272  0.44176534  0.83912883    -0.14900
F663        F  0.16601250  0.47355749  0.82681470    -0.15000
F664        F  0.12671656  0.44558262  0.78949322    -0.12600
C665        C  0.12974263  0.46881229  0.66434238     0.25400
C666        C  0.12210970  0.48258664  0.64564673    -0.22700
C667        C  0.09318493  0.48084810  0.64607085     0.20300
C668        C  0.07307857  0.46759024  0.66616605     0.25400
C669        C  0.08048217  0.45342440  0.68483655    -0.22600
C670        C  0.10892503  0.45399958  0.68368074     0.20300
F671        F  0.11622593  0.43970087  0.70101279    -0.12600
F672        F  0.15706604  0.46906702  0.66338649    -0.14900
F673        F  0.04583585  0.46750405  0.66695264    -0.15000
F674        F  0.08398816  0.49100234  0.62669779    -0.12600
C675        C  0.37566696  0.35207463  0.67892039     0.25400
C676        C  0.37564628  0.34069254  0.65537818    -0.22700
C677        C  0.39935328  0.33390030  0.64983726     0.20300
C678        C  0.42143458  0.33818232  0.66736184     0.25400
C679        C  0.42417255  0.35448668  0.68860814    -0.22600
C680        C  0.40148102  0.36242402  0.69353580     0.20300
F681        F  0.40337377  0.37870110  0.71353578    -0.12600
F682        F  0.35047390  0.35222748  0.68843342    -0.14900
F683        F  0.44035938  0.32676745  0.66330559    -0.15000
F684        F  0.40175400  0.32345225  0.62747472    -0.12600
C685        C  0.04202148  0.16900782  0.83337239     0.25400
C686        C  0.02509003  0.14711090  0.85115946    -0.22700
C687        C  0.02720657  0.12140823  0.85122067     0.20300
C688        C  0.04389812  0.11660288  0.83259679     0.25400
C689        C  0.06050462  0.13826775  0.81446156    -0.22600
C690        C  0.05981098  0.16474780  0.81527292     0.20300
F691        F  0.07661422  0.18656938  0.79871275    -0.12600
F692        F  0.04167024  0.19471039  0.83384905    -0.14900
F693        F  0.04393426  0.09074224  0.83233444    -0.15000
F694        F  0.01410519  0.10139260  0.86980258    -0.12600
C695        C  0.12287746  0.03432944  0.85707437     0.25400
C696        C  0.14867565  0.03042299  0.85529166    -0.22700
C697        C  0.16948188  0.04284846  0.83534358     0.20300
C698        C  0.16406741  0.05821781  0.81679060     0.25400
C699        C  0.13731088  0.06085249  0.81768093    -0.22600
C700        C  0.11668119  0.04863909  0.83800832     0.20300
F701        F  0.09048019  0.05045601  0.83935294    -0.12600
F702        F  0.10394631  0.02462038  0.87734890    -0.14900
F703        F  0.18504982  0.07062735  0.79799764    -0.15000
F704        F  0.19538594  0.04050435  0.83416915    -0.12600
C705        C  0.17684159  0.06563933  0.68862880     0.25400
C706        C  0.15235237  0.07175111  0.68814316    -0.22700
C707        C  0.13336907  0.06359094  0.66746636     0.20300
C708        C  0.13903742  0.05005841  0.64756716     0.25400
C709        C  0.16164965  0.04169026  0.64901455    -0.22600
C710        C  0.18096228  0.04998492  0.66942196     0.20300
F711        F  0.20372325  0.04295221  0.67066324    -0.12600
F712        F  0.19649483  0.07462133  0.70773536    -0.14900
F713        F  0.12262145  0.04537534  0.62673556    -0.15000
F714        F  0.10903352  0.06841988  0.66666210    -0.12600
C715        C  0.07050705  0.12693441  0.66486108     0.25400
C716        C  0.08020071  0.14728889  0.68410636    -0.22700
C717        C  0.07568309  0.17165630  0.68219501     0.20300
C718        C  0.05988808  0.17451188  0.66220529     0.25400
C719        C  0.04940730  0.15362163  0.64350790    -0.22600
C720        C  0.05618427  0.13067078  0.64434321     0.20300
F721        F  0.04894488  0.11187596  0.62531200    -0.12600
F722        F  0.07419311  0.10297174  0.66623701    -0.14900
F723        F  0.05435059  0.19738379  0.66123187    -0.15000
F724        F  0.08591994  0.19224405  0.69996667    -0.12600
C725        C  0.45016862  0.12367207  0.82814587     0.25400
C726        C  0.45771893  0.11612087  0.85094157    -0.22700
C727        C  0.45207090  0.08747845  0.85483161     0.20300
C728        C  0.44244909  0.06765407  0.83545201     0.25400
C729        C  0.43482979  0.07491086  0.81241950    -0.22600
C730        C  0.43790368  0.10298016  0.80931417     0.20300
F731        F  0.42937955  0.11049632  0.78796626    -0.12600
F732        F  0.45501449  0.15115698  0.82405839    -0.14900
F733        F  0.44143089  0.04156957  0.83907587    -0.15000
F734        F  0.45680196  0.07893920  0.87733092    -0.12600
C735        C  0.33774229  0.39739420  0.81421051     0.25400
C736        C  0.36115347  0.42682475  0.81423607    -0.22700
C737        C  0.38079218  0.43662817  0.83460339     0.20300
C738        C  0.37771304  0.41746984  0.85384989     0.25400
C739        C  0.35659879  0.38769484  0.85240128    -0.22600
C740        C  0.33610221  0.37784451  0.83276955     0.20300
F741        F  0.31418506  0.34938428  0.83185657    -0.12600
F742        F  0.31656568  0.38751084  0.79619546    -0.14900
F743        F  0.39520087  0.42811910  0.87412280    -0.15000
F744        F  0.40344354  0.46475960  0.83580197    -0.12600
C745        C  0.46853155  0.12344036  0.66424960     0.25400
C746        C  0.48197208  0.11651391  0.64421289    -0.22700
C747        C  0.47891178  0.08857635  0.64294079     0.20300
C748        C  0.46468351  0.06847640  0.66234569     0.25400
C749        C  0.45117386  0.07522012  0.68260336    -0.22600
C750        C  0.45259340  0.10270202  0.68300986     0.20300
F751        F  0.43804085  0.10922344  0.70131822    -0.12600
F752        F  0.47040553  0.15009848  0.66537803    -0.14900
F753        F  0.46379276  0.04223704  0.66116128    -0.15000
F754        F  0.48912739  0.08054816  0.62259390    -0.12600
C755        C  0.33200840  0.40444667  0.68114161     0.25400
C756        C  0.36254637  0.42640182  0.68345490    -0.22700
C757        C  0.38532283  0.42659042  0.66764037     0.20300
C758        C  0.37782679  0.40444190  0.65036749     0.25400
C759        C  0.34752824  0.38151784  0.64900015    -0.22600
C760        C  0.32448490  0.38226979  0.66394964     0.20300
F761        F  0.29505458  0.36034081  0.66314377    -0.12600
F762        F  0.30966608  0.40405891  0.69610315    -0.14900
F763        F  0.40029549  0.40462560  0.63572815    -0.15000
F764        F  0.41502348  0.44753454  0.66973168    -0.12600
C765        C  0.47230215  0.19027465  0.56687049     0.25400
C766        C  0.47457883  0.16474182  0.56818583    -0.22700
C767        C  0.45268498  0.13973260  0.55595843     0.20300
C768        C  0.42816064  0.13986568  0.54368511     0.25400
C769        C  0.42533014  0.16524655  0.54295493    -0.22600
C770        C  0.44812323  0.19059492  0.55441377     0.20300
F771        F  0.44620205  0.21552843  0.55484366    -0.12600
F772        F  0.49226758  0.21443224  0.57912710    -0.14900
F773        F  0.40714518  0.11512240  0.53275974    -0.15000
F774        F  0.45460061  0.11479435  0.55663690    -0.12600
C775        C  0.29499982  0.04644922  0.45271907     0.25400
C776        C  0.32154078  0.06883945  0.46375213    -0.22700
C777        C  0.34821719  0.06615495  0.46379960     0.20300
C778        C  0.34944448  0.04390452  0.45053247     0.25400
C779        C  0.32422145  0.02414155  0.43674645    -0.22600
C780        C  0.29657302  0.02474709  0.43895464     0.20300
F781        F  0.27195641  0.00631974  0.42569585    -0.12600
F782        F  0.26776995  0.04638795  0.45379627    -0.14900
F783        F  0.37632874  0.04333752  0.44912607    -0.15000
F784        F  0.37381447  0.08609754  0.47518680    -0.12600
C785        C  0.24670801  0.06067265  0.58031012     0.25400
C786        C  0.21678497  0.04115635  0.57254964    -0.22700
C787        C  0.20970110  0.04165532  0.54765073     0.20300
C788        C  0.23142824  0.06213846  0.53115226     0.25400
C789        C  0.26071437  0.08308433  0.53921776    -0.22600
C790        C  0.26849318  0.08147584  0.56379742     0.20300
F791        F  0.29656708  0.10078735  0.57215140    -0.12600
F792        F  0.25448544  0.06015074  0.60418493    -0.14900
F793        F  0.22350970  0.06161996  0.50716380    -0.15000
F794        F  0.18112679  0.02349461  0.53950582    -0.12600
C795        C  0.42963497  0.28321362  0.47275013     0.25400
C796        C  0.41029272  0.25371079  0.46694674    -0.22700
C797        C  0.41304322  0.24416149  0.44324281     0.20300
C798        C  0.43416730  0.26365581  0.42565223     0.25400
C799        C  0.45257474  0.29345029  0.43100429    -0.22600
C800        C  0.45024988  0.30293821  0.45487378     0.20300
F801        F  0.46658616  0.33162371  0.46045881    -0.12600
F802        F  0.42742862  0.29333044  0.49534133    -0.14900
F803        F  0.43632985  0.25345040  0.40308818    -0.15000
F804        F  0.39537693  0.21579136  0.43709407    -0.12600
C805        C  0.22367579  0.17092500  0.45972063     0.25400
C806        C  0.25449048  0.18292624  0.45164875    -0.22700
C807        C  0.26287861  0.19519775  0.42768097     0.20300
C808        C  0.24040816  0.19360422  0.41155090     0.25400
C809        C  0.20940746  0.18024180  0.41930689    -0.22600
C810        C  0.20134840  0.16960396  0.44371188     0.20300
F811        F  0.17147590  0.15555785  0.45134093    -0.12600
F812        F  0.21485181  0.15857043  0.48266096    -0.14900
F813        F  0.24853998  0.20338114  0.38781715    -0.15000
F814        F  0.29215960  0.20598818  0.41905457    -0.12600
C815        C  0.33436513  0.27580534  0.54197861     0.25400
C816        C  0.32564440  0.24739484  0.55024486    -0.22700
C817        C  0.31163557  0.23801561  0.57378425     0.20300
C818        C  0.30794745  0.25727817  0.58940918     0.25400
C819        C  0.31892753  0.28644692  0.58199719    -0.22600
C820        C  0.33137583  0.29535383  0.55785195     0.20300
F821        F  0.34333276  0.32363450  0.55046277    -0.12600
F822        F  0.34848826  0.28542118  0.51949917    -0.14900
F823        F  0.29542643  0.24801044  0.61243066    -0.15000
F824        F  0.30304688  0.21059156  0.58213977    -0.12600
C825        C  0.21327895  0.07299008  0.95934970     0.25400
C826        C  0.24484631  0.08313073  0.95729241    -0.22700
C827        C  0.25594848  0.06771183  0.94320192     0.20300
C828        C  0.23566947  0.04352550  0.92962910     0.25400
C829        C  0.20419221  0.03467717  0.93019884    -0.22600
C830        C  0.19304684  0.04886553  0.94592575     0.20300
F831        F  0.16271224  0.04064573  0.94672793    -0.12600
F832        F  0.20224587  0.08738279  0.97337346    -0.14900
F833        F  0.24700909  0.03043974  0.91433820    -0.10200
F834        F  0.28653430  0.07724739  0.94136159    -0.12600
C835        C  0.18789327  0.14931243  0.04263249     0.25400
C836        C  0.19532837  0.15775815  0.06725299    -0.22700
C837        C  0.22530682  0.16639308  0.07502962     0.20300
C838        C  0.24717002  0.16590892  0.05874021     0.25400
C839        C  0.23960694  0.15674394  0.03425720    -0.22600
C840        C  0.20978771  0.14882214  0.02626361     0.20300
F841        F  0.20131815  0.13926275  0.00290397    -0.12600
F842        F  0.15890470  0.13983954  0.03485650    -0.14900
F843        F  0.27586306  0.17466733  0.06689498    -0.15000
F844        F  0.23318919  0.17466503  0.09874664    -0.12600
C845        C  0.41716669  0.18450302  0.93855420     0.25400
C846        C  0.41792517  0.17648321  0.96334326    -0.22700
C847        C  0.43860389  0.16624707  0.96933257     0.20300
C848        C  0.45713076  0.16335771  0.95106675     0.25400
C849        C  0.45570897  0.17055918  0.92627301    -0.22600
C850        C  0.43562314  0.18128300  0.92019142     0.20300
F851        F  0.43388447  0.18866823  0.89639795    -0.12600
F852        F  0.39790794  0.19461157  0.93190271    -0.14900
F853        F  0.47577371  0.15245276  0.95754695    -0.15000
F854        F  0.44098496  0.15879410  0.99298328    -0.12600
C855        C  0.32567038  0.03517229  0.05289475     0.25400
C856        C  0.30976441  0.02737512  0.07582228    -0.22700
C857        C  0.29202638  0.04051617  0.08280415     0.20300
C858        C  0.29314852  0.06343494  0.06853537     0.25400
C859        C  0.31204641  0.07343294  0.04716114    -0.22600
C860        C  0.32678100  0.05798407  0.03870850     0.20300
F861        F  0.34431414  0.06651073  0.01759226    -0.12600
F862        F  0.34310313  0.02310432  0.04554086    -0.14900
F863        F  0.27851643  0.07782135  0.07703545    -0.15000
F864        F  0.27574724  0.03283096  0.10452947    -0.12600
C865        C  0.47760468  0.26945834  0.07013393     0.25400
C866        C  0.47686694  0.29559012  0.07303394    -0.22700
C867        C  0.45550692  0.30013546  0.05974150     0.20300
C868        C  0.43338189  0.27786090  0.04556905     0.25400
C869        C  0.43253916  0.25072632  0.04413824    -0.22600
C870        C  0.45609158  0.24745777  0.05548560     0.20300
F871        F  0.45766653  0.22243256  0.05340625    -0.12600
F872        F  0.49759499  0.26425439  0.08300523    -0.14900
F873        F  0.41175167  0.28234391  0.03459340    -0.15000
F874        F  0.45503541  0.32570501  0.06166443    -0.12600
C875        C  0.31159587  0.25730930  0.94743742     0.25400
C876        C  0.33770427  0.25915294  0.95908285    -0.22700
C877        C  0.36502127  0.28601117  0.95809879     0.20300
C878        C  0.36636693  0.31002204  0.94531527     0.25400
C879        C  0.34072319  0.30754968  0.93268825    -0.22600
C880        C  0.31324960  0.28107198  0.93421252     0.20300
F881        F  0.28864168  0.27738037  0.92118099    -0.12600
F882        F  0.28466157  0.23187306  0.94749018    -0.14900
F883        F  0.39327707  0.33547132  0.94417283    -0.15000
F884        F  0.39056298  0.28898723  0.96913082    -0.12600
O885        O  0.35006102  0.61994655  0.03025750    -0.79100
O886        O  0.35971707  0.73110782  0.97671730    -0.63800
O887        O  0.34586967  0.67085608  0.02400348    -1.10400
C888        C  0.26898081  0.61226608  0.96751065     1.07800
O889        O  0.30958272  0.71403452  0.97813309    -0.77000
O890        O  0.26302745  0.66276700  0.99299766    -0.64500
Ni891      Ni  0.37638324  0.66147808  0.03299335     1.34900
C892        C  0.26470215  0.65854064  0.01590130     0.86600
O893        O  0.38842191  0.73021347  0.01913094    -0.77500
O894        O  0.40537115  0.70200894  0.03690849    -0.87800
C895        C  0.33635619  0.73434193  0.97256475     0.86100
O896        O  0.39156894  0.66183806  0.00057589    -0.66000
O897        O  0.27577114  0.63566263  0.95534410    -0.85300
C898        C  0.39728102  0.67883013  0.98211649     0.87000
C899        C  0.40787339  0.72693028  0.03203752     1.08500
H900        H  0.33335369  0.66447970  0.96921184     0.40300
O901        O  0.32386052  0.67008680  0.98224114    -1.07900
O902        O  0.28509052  0.65310534  0.02441110    -0.64600
Ni903      Ni  0.31164784  0.64121894  0.00741446     1.26300
O904        O  0.38619661  0.69621712  0.98033455    -0.64800
O905        O  0.27790372  0.61182025  0.98941127    -0.77100
C906        C  0.32189467  0.60400155  0.03628279     0.86300
O907        O  0.30265433  0.61286399  0.03308726    -0.64300
Ni908      Ni  0.29315803  0.67490240  0.96678958     1.27400
Ni909      Ni  0.35569818  0.70118412  0.00002146     1.26100
H910        H  0.33881215  0.67588636  0.03900026     0.40900
O911        O  0.40422946  0.68999738  0.52232405    -0.79100
O912        O  0.30304664  0.69583316  0.47094509    -0.63800
O913        O  0.34404677  0.67648364  0.52051200    -1.10400
C914        C  0.32194550  0.59598418  0.47081166     1.07800
O915        O  0.26517442  0.65045293  0.47335302    -0.77000
O916        O  0.27014122  0.61284738  0.50307955    -0.64500
Ni917      Ni  0.37970602  0.70607784  0.53484561     1.34900
C918        C  0.28263396  0.60593926  0.52003906     0.86600
O919        O  0.32597953  0.71938261  0.51561164    -0.77500
O920        O  0.35600820  0.72292259  0.54761915    -0.87800
C921        C  0.27592532  0.67660889  0.46582330     0.86100
O922        O  0.39573118  0.73428815  0.50832668    -0.66000
O923        O  0.29814110  0.59826778  0.46658920    -0.85300
C924        C  0.38839625  0.73237517  0.48580817     0.87000
C925        C  0.33670068  0.72850297  0.53711184     1.08500
H926        H  0.33517322  0.66238890  0.46362163     0.40300
O927        O  0.32320060  0.65546403  0.47880762    -1.07900
O928        O  0.31164865  0.61673322  0.52138386    -0.64600
Ni929      Ni  0.34616110  0.64643087  0.50197565     1.26300
O930        O  0.36221944  0.71331223  0.47840563    -0.64800
O931        O  0.34500553  0.61535618  0.48239718    -0.77100
C932        C  0.39965175  0.66498280  0.52899335     0.86300
O933        O  0.37375880  0.64256465  0.52480962    -0.64300
Ni934      Ni  0.28370388  0.62589172  0.47038673     1.27400
Ni935      Ni  0.32456135  0.68764933  0.49628415     1.26100
H936        H  0.32936303  0.66732593  0.53401854     0.40900
N937        N  0.40030492  0.50049679  0.71091061    -0.34800
N938        N  0.37781305  0.95531942  0.74838631    -0.55300
N939        N  0.39420657  0.49980176  0.78500256    -0.34800
N940        N  0.42208078  0.54544107  0.74803495    -0.55300
C941        C  0.38650772  0.97716599  0.69685699     0.28800
C942        C  0.40906229  0.52497988  0.69719120     0.28800
C943        C  0.37946475  0.97634321  0.79792478     0.28800
C944        C  0.39811978  0.52361478  0.79750085     0.28800
C945        C  0.37644746  0.93925475  0.72854490     0.37400
C946        C  0.37647598  0.93946750  0.76864969     0.37400
C947        C  0.44073420  0.56012883  0.72858469     0.37400
C948        C  0.43613707  0.55992971  0.76862087     0.37400
C949        C  0.38199068  0.98645767  0.67403073    -0.20100
C950        C  0.39483724  0.51767371  0.67448041    -0.20100
C951        C  0.36838142  0.98418837  0.81852801    -0.20100
C952        C  0.37779702  0.51485766  0.81764368    -0.20100
C953        C  0.37359302  0.91283679  0.73614578    -0.21100
C954        C  0.37446962  0.91323309  0.76157429    -0.21100
C955        C  0.46706825  0.58399674  0.73681363    -0.21100
C956        C  0.46418547  0.58381337  0.76225876    -0.21100
C957        C  0.37660222  0.94789430  0.70374811    -0.16500
C958        C  0.43279219  0.55289853  0.70360391    -0.16500
C959        C  0.42243875  0.55229119  0.79264221    -0.16500
C960        C  0.37481753  0.94802822  0.79317354    -0.16500
H961        H  0.36900468  0.97297665  0.65887205     0.16400
H962        H  0.39765862  0.53231461  0.65924275     0.16400
H963        H  0.35295461  0.96980903  0.83288856     0.16400
H964        H  0.37566540  0.52865757  0.83145601     0.16400
H965        H  0.37101751  0.89518761  0.72451570     0.14700
H966        H  0.37317096  0.89591288  0.77334324     0.14700
H967        H  0.48620243  0.59987742  0.72566253     0.14700
H968        H  0.48068960  0.59946618  0.77462789     0.14700
H969        H  0.41033312  0.49918325  0.72725781     0.28000
H970        H  0.40879005  0.49949826  0.77109052     0.28000
N971        N  0.12473335  0.62005181  0.71662324    -0.34800
N972        N  0.09511182  0.63966211  0.75210325    -0.55300
N973        N  0.11355742  0.61224003  0.78973028    -0.34800
N974        N  0.14488815  0.59429335  0.75361697    -0.55300
C975        C  0.11923648  0.63841142  0.70280538     0.28800
C976        C  0.14496699  0.61490121  0.70373764     0.28800
C977        C  0.10443821  0.62816406  0.80352488     0.28800
C978        C  0.13072138  0.60505669  0.80422751     0.28800
C979        C  0.08179324  0.64160221  0.73115495     0.37400
C980        C  0.07645488  0.63822742  0.77109332     0.37400
C981        C  0.14751031  0.58059000  0.73341650     0.37400
C982        C  0.14250722  0.57731788  0.77323077     0.37400
C983        C  0.13710614  0.64599523  0.68123949    -0.20100
C984        C  0.15346865  0.63114167  0.68185621    -0.20100
C985        C  0.11654945  0.63176410  0.82695457    -0.20100
C986        C  0.13325530  0.61720600  0.82737852    -0.20100
C987        C  0.05481259  0.64195663  0.73686922    -0.21100
C988        C  0.05152691  0.63999526  0.76224005    -0.21100
C989        C  0.14717854  0.55493857  0.74020854    -0.21100
C990        C  0.14417364  0.55294805  0.76556067    -0.21100
C991        C  0.09424239  0.64339835  0.70710751    -0.16500
C992        C  0.15059774  0.59161730  0.70910516    -0.16500
C993        C  0.14013322  0.58444878  0.79796145    -0.16500
C994        C  0.08231545  0.63600611  0.79627433    -0.16500
H995        H  0.13673391  0.65920792  0.66593362     0.16400
H996        H  0.16816216  0.63062854  0.66711615     0.16400
H997        H  0.11272313  0.64273441  0.84240382     0.16400
H998        H  0.14475236  0.61469746  0.84324029     0.16400
H999        H  0.03903396  0.64328699  0.72416250     0.14700
H1000       H  0.03278842  0.63959800  0.77289683     0.14700
H1001       H  0.14876575  0.53925410  0.72824116     0.14700
H1002       H  0.14311737  0.53550344  0.77701365     0.14700
H1003       H  0.11083793  0.60723694  0.73128871     0.28000
H1004       H  0.10446447  0.60281310  0.77287724     0.28000
N1005       N  0.00795222  0.88639149  0.78805214    -0.34800
N1006       N  0.05271622  0.91684113  0.74942169    -0.55300
N1007       N  0.00305279  0.88903834  0.71364074    -0.34800
N1008       N  0.45890820  0.85681565  0.75334762    -0.55300
C1009       C  0.03432972  0.89548503  0.80034474     0.28800
C1010       C  0.48527606  0.86607791  0.80250461     0.28800
C1011       C  0.02678975  0.90596616  0.69800309     0.28800
C1012       C  0.47741299  0.87485279  0.70001288     0.28800
C1013       C  0.06942500  0.93112253  0.76914389     0.37400
C1014       C  0.06687481  0.93379134  0.72936510     0.37400
C1015       C  0.44172259  0.84829533  0.77449418     0.37400
C1016       C  0.43931036  0.84672349  0.73443157     0.37400
C1017       C  0.02838456  0.88000800  0.82252402    -0.20100
C1018       C  0.49718691  0.86173306  0.82403973    -0.20100
C1019       C  0.01638534  0.90162404  0.67398279    -0.20100
C1020       C  0.48517313  0.88367755  0.67540454    -0.20100
C1021       C  0.09446523  0.95722335  0.76159987    -0.21100
C1022       C  0.09297978  0.95883485  0.73636466    -0.21100
C1023       C  0.41103248  0.83181244  0.76902670    -0.21100
C1024       C  0.40971120  0.82939846  0.74382894    -0.21100
C1025       C  0.06249480  0.92025533  0.79371367    -0.16500
C1026       C  0.45382759  0.85476066  0.79848056    -0.16500
C1027       C  0.44695965  0.85567683  0.70916304    -0.16500
C1028       C  0.05692072  0.92716204  0.70473311    -0.16500
H1029       H  0.04457954  0.88283017  0.83671711     0.16400
H1030       H  0.48452020  0.84754280  0.83953851     0.16400
H1031       H  0.02927059  0.91156858  0.65707071     0.16400
H1032       H  0.47041839  0.87843002  0.65973220     0.16400
H1033       H  0.11190245  0.97345550  0.77301617     0.14700
H1034       H  0.10898476  0.97669255  0.72455767     0.14700
H1035       H  0.39134876  0.82215246  0.78146668     0.14700
H1036       H  0.38883096  0.81746514  0.73368214     0.14700
H1037       H  0.00463895  0.89714346  0.77316833     0.28000
H1038       H  0.00424522  0.88806316  0.73260750     0.28000
C1039       C  0.49457852  0.65902305  0.58505153     0.04100
C1040       C  0.02699206  0.67781814  0.58563019     0.04100
C1041       C  0.04351552  0.67364091  0.60463499    -0.16400
C1042       C  0.02885568  0.65296818  0.62357967     0.04100
C1043       C  0.49690995  0.63508939  0.62338397     0.04100
C1044       C  0.48024627  0.63791011  0.60405793    -0.16400
H1045       H  0.45553015  0.62420474  0.60441868     0.06100
H1046       H  0.06825443  0.68695390  0.60495606     0.06100
C1047       C  0.19278264  0.52626118  0.59046363     0.04100
C1048       C  0.17160854  0.99320140  0.58924064     0.04100
C1049       C  0.14894599  0.97897824  0.60776138    -0.16400
C1050       C  0.14550751  0.99414770  0.62755477     0.04100
C1051       C  0.16562125  0.52854797  0.62766745     0.04100
C1052       C  0.18926879  0.54205533  0.61000903    -0.16400
H1053       H  0.20483513  0.56527990  0.61133674     0.06100
H1054       H  0.13422164  0.95552567  0.60717911     0.06100
C1055       C  0.33133700  0.84784132  0.91498226     0.04100
C1056       C  0.34951121  0.83401957  0.91762454     0.04100
C1057       C  0.37156534  0.83851185  0.89922691    -0.16400
C1058       C  0.37579239  0.85592447  0.87828208     0.04100
C1059       C  0.35871212  0.87078972  0.87619666     0.04100
C1060       C  0.33688302  0.86668833  0.89462638    -0.16400
H1061       H  0.32365087  0.87795840  0.89286835     0.06100
H1062       H  0.38449945  0.82688937  0.90048462     0.06100
C1063       C  0.31052770  0.82551509  0.59971031     0.04100
C1064       C  0.32212902  0.80601298  0.60228238     0.04100
C1065       C  0.34102477  0.80912171  0.62223338    -0.16400
C1066       C  0.35146451  0.83295170  0.63829097     0.04100
C1067       C  0.34053895  0.85331506  0.63496271     0.04100
C1068       C  0.31962279  0.84866782  0.61621139    -0.16400
H1069       H  0.31090005  0.86384346  0.61396237     0.06100
H1070       H  0.34857127  0.79312352  0.62463384     0.06100
C1071       C  0.17593539  0.98643883  0.90752500     0.04100
C1072       C  0.18819633  0.51777746  0.90923562     0.04100
C1073       C  0.18083440  0.53235821  0.89112999    -0.16400
C1074       C  0.16014662  0.51713948  0.87269434     0.04100
C1075       C  0.14531881  0.98416556  0.87193086     0.04100
C1076       C  0.15619652  0.97072765  0.88833307    -0.16400
H1077       H  0.14884354  0.94771342  0.88636775     0.06100
H1078       H  0.19154060  0.55597990  0.89129554     0.06100
C1079       C  0.00682007  0.67944165  0.90724008     0.04100
C1080       C  0.47424126  0.66581370  0.90658023     0.04100
C1081       C  0.45883351  0.64498842  0.88816985    -0.16400
C1082       C  0.47512059  0.63795889  0.87041653     0.04100
C1083       C  0.00751941  0.65257110  0.87069366     0.04100
C1084       C  0.02278828  0.67289059  0.88904338    -0.16400
H1085       H  0.04765394  0.68404939  0.88898900     0.06100
H1086       H  0.43400720  0.63385765  0.88788442     0.06100
O1087       O  0.23193085  0.85070912  0.52114529    -0.79100
O1088       O  0.12648005  0.85941495  0.47397821    -0.63800
O1089       O  0.17456366  0.84424459  0.52042217    -1.10400
C1090       C  0.15690305  0.76812109  0.46400881     1.07800
O1091       O  0.09501807  0.81273356  0.48012630    -0.77000
O1092       O  0.10029624  0.76718940  0.49440809    -0.64500
Ni1093     Ni  0.21270893  0.87264217  0.53164050     1.34900
C1094       C  0.11002731  0.76714853  0.51580295     0.86600
O1095       O  0.15670302  0.88750086  0.51610245    -0.77500
O1096       O  0.19530935  0.89615595  0.54183624    -0.87800
C1097       C  0.10003296  0.83707265  0.47131951     0.86100
O1098       O  0.22825698  0.89524309  0.50227826    -0.66000
O1099       O  0.13627873  0.77290318  0.45478708    -0.85300
C1100       C  0.21780783  0.89735692  0.48168664     0.87000
C1101       C  0.17524986  0.90207539  0.53331879     1.08500
H1102       H  0.16678999  0.83075642  0.46508191     0.40300
O1103       O  0.15311172  0.82279644  0.47931114    -1.07900
O1104       O  0.13727038  0.78520945  0.52203435    -0.64600
Ni1105     Ni  0.17368368  0.81216967  0.50287465     1.26300
O1106       O  0.18928937  0.88216036  0.47680349    -0.64800
O1107       O  0.17207462  0.78068160  0.48329383    -0.77100
C1108       C  0.22434918  0.82596739  0.53055807     0.86300
O1109       O  0.19744161  0.80522266  0.52708857    -0.64300
Ni1110     Ni  0.11599804  0.79346203  0.46705298     1.27400
Ni1111     Ni  0.15343731  0.85478375  0.49700448     1.26100
H1112       H  0.16131692  0.83663697  0.53497874     0.40900
O1113       O  0.19127850  0.78578620  0.02044161    -0.79100
O1114       O  0.19885529  0.88926115  0.96705865    -0.63800
O1115       O  0.17922086  0.83107400  0.01693163    -1.10400
C1116       C  0.09578565  0.77474697  0.96479496     1.07800
O1117       O  0.15124111  0.88106809  0.97105730    -0.77000
O1118       O  0.10752163  0.83665291  0.99668670    -0.64500
Ni1119     Ni  0.21000259  0.82527800  0.03131012     1.34900
C1120       C  0.10445071  0.82223602  0.01638249     0.86600
O1121       O  0.22422062  0.88970121  0.01046300    -0.77500
O1122       O  0.23040961  0.86495963  0.04215433    -0.87800
C1123       C  0.17892981  0.89731045  0.96406975     0.86100
O1124       O  0.23814931  0.83580753  0.00412290    -0.66000
O1125       O  0.09914481  0.79967454  0.95858648    -0.85300
C1126       C  0.23757519  0.84319487  0.98189704     0.87000
C1127       C  0.23610883  0.88862052  0.03089071     1.08500
H1128       H  0.16423949  0.82576403  0.96056244     0.40300
O1129       O  0.15677773  0.83075788  0.97536459    -1.07900
O1130       O  0.11734819  0.80653620  0.01914725    -0.64600
Ni1131     Ni  0.14658076  0.80027500  0.99924057     1.26300
O1132       O  0.21807338  0.85031487  0.97425404    -0.64800
O1133       O  0.11330734  0.77144670  0.98010327    -0.77100
C1134       C  0.16455860  0.76644431  0.02726419     0.86300
O1135       O  0.14160710  0.77019737  0.02284726    -0.64300
Ni1136     Ni  0.12638252  0.83993560  0.96528172     1.27400
Ni1137     Ni  0.19072294  0.86046884  0.99220861     1.26100
H1138       H  0.17026566  0.83654090  0.03047541     0.40900
N1139       N  0.48502411  0.60040805  0.21294100    -0.34800
N1140       N  0.44193427  0.59067728  0.25315532    -0.55300
N1141       N  0.49322004  0.61217257  0.28663320    -0.34800
N1142       N  0.03641315  0.62398741  0.24699896    -0.55300
C1143       C  0.45974225  0.59456219  0.19988160     0.28800
C1144       C  0.00951891  0.61214202  0.19709500     0.28800
C1145       C  0.47029872  0.61079394  0.30113449     0.28800
C1146       C  0.01999903  0.62994181  0.29772097     0.28800
C1147       C  0.42169280  0.57669920  0.23511072     0.37400
C1148       C  0.42669668  0.57974860  0.27498576     0.37400
C1149       C  0.04994551  0.61967109  0.22687724     0.37400
C1150       C  0.05447335  0.62688372  0.26629803     0.37400
C1151       C  0.46857937  0.60249192  0.17523947    -0.20100
C1152       C  0.99985228  0.61447874  0.17377967    -0.20100
C1153       C  0.48235026  0.62867763  0.32134715    -0.20100
C1154       C  0.01398644  0.64089181  0.31914658    -0.20100
C1155       C  0.39306214  0.55837841  0.24568252    -0.21100
C1156       C  0.39670349  0.55880198  0.27063261    -0.21100
C1157       C  0.07675791  0.61986484  0.23337570    -0.21100
C1158       C  0.07963727  0.62442496  0.25841254    -0.21100
C1159       C  0.42891509  0.57982133  0.20932065    -0.16500
C1160       C  0.03977602  0.61827758  0.20247478    -0.16500
C1161       C  0.04876403  0.63294152  0.29063351    -0.16500
C1162       C  0.43923649  0.58986615  0.29859008    -0.16500
H1163       H  0.45453745  0.59945971  0.15944061     0.16400
H1164       H  0.01363135  0.62275889  0.15696105     0.16400
H1165       H  0.46971610  0.63123331  0.33672969     0.16400
H1166       H  0.03041861  0.65504366  0.33238987     0.16400
H1167       H  0.37153815  0.54528009  0.23674189     0.14700
H1168       H  0.37871084  0.54508632  0.28366093     0.14700
H1169       H  0.09275291  0.61747138  0.22119843     0.14700
H1170       H  0.09822490  0.62606773  0.26943986     0.14700
H1171       H  0.48513508  0.59319341  0.23084768     0.28000
H1172       H  0.49043703  0.59754464  0.27268169     0.28000
N1173       N  0.39001141  0.89347228  0.28460478    -0.34800
N1174       N  0.41223844  0.86846800  0.24694727    -0.55300
N1175       N  0.40308236  0.90213741  0.20924406    -0.34800
N1176       N  0.38233439  0.92862338  0.24670544    -0.55300
C1177       C  0.40396721  0.88179680  0.29842700     0.28800
C1178       C  0.38698039  0.91327275  0.29873736     0.28800
C1179       C  0.42180567  0.89406644  0.19740320     0.28800
C1180       C  0.40512861  0.92540404  0.19677919     0.28800
C1181       C  0.40761213  0.85030330  0.26627092     0.37400
C1182       C  0.41366997  0.85458347  0.22643598     0.37400
C1183       C  0.36928947  0.93513382  0.26609249     0.37400
C1184       C  0.37524024  0.93854256  0.22601100     0.37400
C1185       C  0.40992683  0.89444166  0.32153708    -0.20100
C1186       C  0.39825779  0.91328751  0.32206254    -0.20100
C1187       C  0.43656876  0.91302788  0.17757642    -0.20100
C1188       C  0.42538335  0.93232260  0.17679251    -0.20100
C1189       C  0.40537267  0.82440319  0.25803399    -0.21100
C1190       C  0.40893579  0.82700708  0.23267139    -0.21100
C1191       C  0.35434799  0.94980477  0.25761588    -0.21100
C1192       C  0.35774851  0.95157256  0.23224627    -0.21100
C1193       C  0.40965152  0.85876774  0.29117319    -0.16500
C1194       C  0.37341737  0.93052079  0.29133932    -0.16500
C1195       C  0.38700716  0.93861718  0.20194374    -0.16500
C1196       C  0.42348968  0.86849504  0.20300620    -0.16500
H1197       H  0.42111071  0.89038852  0.33681006     0.16400
H1198       H  0.39834603  0.92541701  0.33814602     0.16400
H1199       H  0.45310754  0.91265302  0.16458230     0.16400
H1200       H  0.43154763  0.94940885  0.16301756     0.16400
H1201       H  0.40247100  0.80601782  0.26921849     0.14700
H1202       H  0.40935566  0.81100419  0.22035984     0.14700
H1203       H  0.34277889  0.95895008  0.26847241     0.14700
H1204       H  0.34928225  0.96220766  0.21991326     0.14700
H1205       H  0.38046741  0.88634054  0.26735544     0.28000
H1206       H  0.38678241  0.89020778  0.22301719     0.28000
C1207       C  0.33091833  0.50874299  0.41455038     0.04100
C1208       C  0.31210375  0.97842835  0.41148151     0.04100
C1209       C  0.31965728  0.96703730  0.39042967    -0.16400
C1210       C  0.34302011  0.98526401  0.37316689     0.04100
C1211       C  0.35991155  0.51466613  0.37627059     0.04100
C1212       C  0.35387454  0.52620424  0.39736448    -0.16400
H1213       H  0.36644394  0.54965408  0.39982866     0.06100
H1214       H  0.30757016  0.94367696  0.38772378     0.06100
N1215       N  0.09592977  0.99718675  0.28934214    -0.34800
N1216       N  0.07585518  0.95101246  0.25277398    -0.55300
N1217       N  0.10157400  0.99524839  0.21484544    -0.34800
N1218       N  0.12393400  0.54192891  0.25013068    -0.55300
C1219       C  0.08746607  0.97326625  0.30381548     0.28800
C1220       C  0.11472297  0.52029811  0.30173643     0.28800
C1221       C  0.09733794  0.97153492  0.20206652     0.28800
C1222       C  0.12195193  0.52053867  0.20017570     0.28800
C1223       C  0.05951569  0.93510668  0.27273131     0.37400
C1224       C  0.06405932  0.93396439  0.23282948     0.37400
C1225       C  0.12405644  0.55776824  0.26981040     0.37400
C1226       C  0.12524209  0.55750480  0.22967232     0.37400
C1227       C  0.10085383  0.98163907  0.32672336    -0.20100
C1228       C  0.11924169  0.51095695  0.32457664    -0.20100
C1229       C  0.11483596  0.98025743  0.18033090    -0.20100
C1230       C  0.13148434  0.51235100  0.17884081    -0.20100
C1231       C  0.03749230  0.90759789  0.26549080    -0.21100
C1232       C  0.04040739  0.90687166  0.24015540    -0.21100
C1233       C  0.12552753  0.58355749  0.26185184    -0.21100
C1234       C  0.12604458  0.58329302  0.23641927    -0.21100
C1235       C  0.06591393  0.94442874  0.29747417    -0.16500
C1236       C  0.12458417  0.54973886  0.29476971    -0.16500
C1237       C  0.12746536  0.54906882  0.20520520    -0.16500
C1238       C  0.07551784  0.94248651  0.20832850    -0.16500
H1239       H  0.09809073  0.96760241  0.34242858     0.16400
H1240       H  0.13238444  0.52439902  0.33968994     0.16400
H1241       H  0.11577546  0.96641671  0.16595211     0.16400
H1242       H  0.14659050  0.52655198  0.16424527     0.16400
H1243       H  0.02144571  0.88977291  0.27728603     0.14700
H1244       H  0.02697418  0.88847750  0.22852411     0.14700
H1245       H  0.12628488  0.60077804  0.27320280     0.14700
H1246       H  0.12740437  0.60037427  0.22436131     0.14700
H1247       H  0.08619105  0.99746080  0.27255515     0.28000
H1248       H  0.08819473  0.99535476  0.22979928     0.28000
C1249       C  0.31810365  0.51226564  0.09339307     0.04100
C1250       C  0.31710844  0.98475636  0.08927279     0.04100
C1251       C  0.33187371  0.97452924  0.10502978    -0.16400
C1252       C  0.34646332  0.98949697  0.12640441     0.04100
C1253       C  0.34650954  0.51660285  0.13126091     0.04100
C1254       C  0.33146356  0.52663865  0.11537678    -0.16400
H1255       H  0.33057071  0.54629726  0.11982324     0.06100
H1256       H  0.33107689  0.95393707  0.10105255     0.06100
C1257       C  0.16745536  0.68637966  0.40032912     0.04100
C1258       C  0.18706999  0.67396487  0.39955279     0.04100
C1259       C  0.18228537  0.65267498  0.38174600    -0.16400
C1260       C  0.15862513  0.64377106  0.36466676     0.04100
C1261       C  0.14076738  0.65796656  0.36430613     0.04100
C1262       C  0.14534366  0.67893079  0.38203811    -0.16400
H1263       H  0.13096261  0.68914084  0.38192765     0.06100
H1264       H  0.19627179  0.64207021  0.38187221     0.06100
C1265       C  0.17287236  0.65483267  0.08500139     0.04100
C1266       C  0.15335987  0.66758821  0.08429949     0.04100
C1267       C  0.13098959  0.66032894  0.10322400    -0.16400
C1268       C  0.12743116  0.64091996  0.12244315     0.04100
C1269       C  0.14657681  0.62820438  0.12310829     0.04100
C1270       C  0.16883740  0.63508668  0.10437903    -0.16400
H1271       H  0.18321514  0.62489365  0.10490850     0.06100
H1272       H  0.11671638  0.67064553  0.10351970     0.06100
C1273       C  0.47177458  0.81441438  0.41176227     0.04100
C1274       C  0.00306183  0.83607221  0.41365205     0.04100
C1275       C  0.01654105  0.85702092  0.39458199    -0.16400
C1276       C  0.00039780  0.85687859  0.37363021     0.04100
C1277       C  0.46946968  0.83480984  0.37106087     0.04100
C1278       C  0.45575644  0.81402304  0.39037386    -0.16400
H1279       H  0.43208458  0.79722674  0.38882004     0.06100
H1280       H  0.04053687  0.87333456  0.39560039     0.06100
C1281       C  0.02769069  0.83212593  0.09377611     0.04100
C1282       C  0.49544117  0.81770416  0.09215795     0.04100
C1283       C  0.47795772  0.82156764  0.11077301    -0.16400
C1284       C  0.49169136  0.84099778  0.13006785     0.04100
C1285       C  0.02408800  0.85684100  0.13100661     0.04100
C1286       C  0.04169052  0.85156765  0.11322934    -0.16400
H1287       H  0.06649237  0.86369022  0.11385652     0.06100
H1288       H  0.45315892  0.80909932  0.11020318     0.06100
C1289       C  0.04282731  0.88085235  0.34199449     0.25400
C1290       C  0.01741100  0.87992954  0.35455130    -0.22700
C1291       C  0.00889466  0.90118443  0.34906341     0.20300
C1292       C  0.02520273  0.92266105  0.33089711     0.25400
C1293       C  0.04980528  0.92277513  0.31772672    -0.22600
C1294       C  0.05850024  0.90175862  0.32338875     0.20300
F1295       F  0.08198985  0.90137319  0.31066764    -0.12600
F1296       F  0.05172943  0.86077121  0.34720112    -0.14900
F1297       F  0.01675842  0.94309684  0.32584475    -0.15000
F1298       F  0.48506871  0.90125777  0.36133954    -0.12600
C1299       C  0.05922909  0.87814557  0.16702012     0.25400
C1300       C  0.03987068  0.88021320  0.14944270    -0.22700
C1301       C  0.03376709  0.90367542  0.15061328     0.20300
C1302       C  0.04528527  0.92369854  0.16979218     0.25400
C1303       C  0.06345063  0.92088532  0.18803327    -0.22600
C1304       C  0.07079327  0.89826087  0.18626636     0.20300
F1305       F  0.08912112  0.89569120  0.20319953    -0.12600
F1306       F  0.06572664  0.85586717  0.16619018    -0.14900
F1307       F  0.53880295  0.94597097  0.17056643    -0.15000
F1308       F  0.51652336  0.90711215  0.13313579    -0.12600
C1309       C  0.16298522  0.59914088  0.31108516     0.25400
C1310       C  0.13498348  0.57289347  0.31412693    -0.22700
C1311       C  0.11648789  0.56944025  0.33524793     0.20300
C1312       C  0.12555111  0.59173878  0.35253851     0.25400
C1313       C  0.15187193  0.61884673  0.34815037    -0.22600
C1314       C  0.17103767  0.62209034  0.32768585     0.20300
F1315       F  0.19733093  0.64761364  0.32361374    -0.12600
F1316       F  0.18223456  0.60277723  0.29167630    -0.14900
F1317       F  0.10873128  0.58674284  0.37377132    -0.15000
F1318       F  0.08922583  0.54474538  0.33890776    -0.12600
C1319       C  0.11452059  0.56012593  0.16311904     0.25400
C1320       C  0.13367846  0.56959724  0.18378091    -0.22700
C1321       C  0.15859907  0.59825444  0.18346672     0.20300
C1322       C  0.16291289  0.61742544  0.16370750     0.25400
C1323       C  0.14356447  0.60773413  0.14332101    -0.22600
C1324       C  0.12030812  0.57862246  0.14271438     0.20300
F1325       F  0.10308679  0.56809025  0.12230671    -0.12600
F1326       F  0.08993404  0.53289806  0.16270741    -0.14900
F1327       F  0.18581763  0.64548144  0.16451316    -0.15000
F1328       F  0.17864364  0.60772614  0.20230235    -0.12600
C1329       C  0.44880434  0.84479182  0.30564298     0.25400
C1330       C  0.42111584  0.84527842  0.30991596    -0.22700
C1331       C  0.40617358  0.83546722  0.33312735     0.20300
C1332       C  0.42121748  0.83084162  0.35284969     0.25400
C1333       C  0.45070666  0.83386387  0.34929728    -0.22600
C1334       C  0.46261474  0.83776524  0.32487847     0.20300
F1335       F  0.98816452  0.83553804  0.31980840    -0.12600
F1336       F  0.46338616  0.85250761  0.28319149    -0.14900
F1337       F  0.40753694  0.82512474  0.37565618    -0.15000
F1338       F  0.37795465  0.83266367  0.33724120    -0.12600
C1339       C  0.46147636  0.85155284  0.19174097     0.25400
C1340       C  0.43809890  0.85755227  0.18456457    -0.22700
C1341       C  0.43016629  0.85475219  0.15942369     0.20300
C1342       C  0.44746576  0.84938240  0.14166833     0.25400
C1343       C  0.47152267  0.84439340  0.14890900    -0.22600
C1344       C  0.47668750  0.84342634  0.17427539     0.20300
F1345       F  0.99682010  0.83486484  0.18225182    -0.12600
F1346       F  0.47045380  0.85448575  0.21558293    -0.14900
F1347       F  0.44135938  0.85014631  0.11736369    -0.15000
F1348       F  0.40654609  0.85858486  0.15186887    -0.12600
C1349       C  0.38849823  0.96725958  0.32535267     0.25400
C1350       C  0.36539974  0.94609939  0.31090189    -0.22700
C1351       C  0.33471118  0.93849439  0.31649963     0.20300
C1352       C  0.32752018  0.95202121  0.33598423     0.25400
C1353       C  0.35063256  0.97191531  0.35142119    -0.22600
C1354       C  0.38092426  0.97777151  0.34654143     0.20300
F1355       F  0.40272743  0.99076358  0.36359469    -0.12600
F1356       F  0.41846828  0.97599535  0.32008128    -0.14900
F1357       F  0.29783549  0.94503948  0.34016542    -0.15000
F1358       F  0.31167157  0.91775734  0.30324435    -0.12600
C1359       C  0.38954176  0.99028419  0.15100638     0.25400
C1360       C  0.35910569  0.97529902  0.14291330    -0.22700
C1361       C  0.33934976  0.94708512  0.15248824     0.20300
C1362       C  0.34898648  0.93516704  0.17117379     0.25400
C1363       C  0.37834541  0.95124576  0.18088977    -0.22600
C1364       C  0.39881952  0.97869224  0.17040996     0.20300
F1365       F  0.42740777  0.99453652  0.17942721    -0.12600
F1366       F  0.40955319  0.01690999  0.14125224    -0.14900
F1367       F  0.32924507  0.90817984  0.18043312    -0.15000
F1368       F  0.31001714  0.93172069  0.14480974    -0.12600
C1369       C  0.37002987  0.54927579  0.34119725     0.25400
C1370       C  0.38104457  0.53605261  0.35777086    -0.22700
C1371       C  0.41269884  0.54656239  0.35881208     0.20300
C1372       C  0.43189498  0.56423023  0.33964597     0.25400
C1373       C  0.42048358  0.57565713  0.32149262    -0.22600
C1374       C  0.39019023  0.57060414  0.32436691     0.20300
F1375       F  0.37962356  0.58473613  0.30970538    -0.12600
F1376       F  0.33986735  0.54170425  0.34153732    -0.14900
F1377       F  0.46120438  0.56912581  0.33841438    -0.15000
F1378       F  0.42493421  0.53941426  0.37811254    -0.12600
C1379       C  0.39854575  0.58004068  0.17215768     0.25400
C1380       C  0.40335432  0.56470901  0.19148616    -0.22700
C1381       C  0.38409641  0.53430018  0.19315570     0.20300
C1382       C  0.36085215  0.52013314  0.17624964     0.25400
C1383       C  0.36179021  0.53404999  0.15370915    -0.22600
C1384       C  0.37989615  0.56478686  0.15241303     0.20300
F1385       F  0.38098001  0.58011521  0.13175198    -0.12600
F1386       F  0.41382398  0.60966374  0.17133008    -0.14900
F1387       F  0.33814451  0.99287141  0.18284048    -0.15000
F1388       F  0.38834241  0.51801910  0.21064517    -0.12600
C1389       C  0.06513165  0.62305889  0.33157951     0.25400
C1390       C  0.07245081  0.64027311  0.30982841    -0.22700
C1391       C  0.10229123  0.66397729  0.30653632     0.20300
C1392       C  0.12473269  0.66921456  0.32400105     0.25400
C1393       C  0.11731113  0.65168392  0.34548225    -0.22600
C1394       C  0.08705948  0.62942521  0.34961823     0.20300
F1395       F  0.07853773  0.61420227  0.37134418    -0.12600
F1396       F  0.03664459  0.59997725  0.33536706    -0.14900
F1397       F  0.15359545  0.69169613  0.32022342    -0.15000
F1398       F  0.10959948  0.68208123  0.28651061    -0.12600
C1399       C  0.09026519  0.65047178  0.18053564     0.25400
C1400       C  0.06215051  0.62422236  0.18158809    -0.22700
C1401       C  0.05535297  0.60397396  0.16249803     0.20300
C1402       C  0.07600987  0.61005486  0.14267404     0.25400
C1403       C  0.10461786  0.63547139  0.14241804    -0.22600
C1404       C  0.11149687  0.65582635  0.16127463     0.20300
F1405       F  0.13871329  0.68097939  0.16087014    -0.12600
F1406       F  0.09712440  0.67092254  0.19818245    -0.14900
F1407       F  0.06783281  0.59140168  0.12348101    -0.15000
F1408       F  0.02851543  0.57844727  0.16289520    -0.12600
C1409       C  0.13356042  0.71356593  0.04146992     0.25400
C1410       C  0.16148597  0.73984705  0.04006616    -0.22700
C1411       C  0.18737231  0.74088717  0.05132768     0.20300
C1412       C  0.18512263  0.71685062  0.06439518     0.25400
C1413       C  0.15716471  0.69081445  0.06625899    -0.22600
C1414       C  0.13147308  0.68927745  0.05431973     0.20300
F1415       F  0.10398872  0.66444174  0.05584001    -0.12600
F1416       F  0.10823184  0.71137493  0.03061914    -0.14900
F1417       F  0.20986007  0.71993015  0.07685103    -0.15000
F1418       F  0.21482172  0.76580403  0.05094337    -0.12600
C1419       C  0.06708458  0.83827550  0.03193347     0.25400
C1420       C  0.08469641  0.82426486  0.03659125    -0.22700
C1421       C  0.08324275  0.81289946  0.06062147     0.20300
C1422       C  0.06473984  0.81545064  0.07926924     0.25400
C1423       C  0.04728412  0.82924023  0.07427237    -0.22600
C1424       C  0.04872369  0.84067454  0.05054265     0.20300
F1425       F  0.03248033  0.85455565  0.04543406    -0.12600
F1426       F  0.06732558  0.84973599  0.00927993    -0.14900
F1427       F  0.06332585  0.80391501  0.10212107    -0.15000
F1428       F  0.09984838  0.79954597  0.06622561    -0.12600
C1429       C  0.28898481  0.92815025  0.03917474     0.25400
C1430       C  0.25717717  0.91621867  0.04245825    -0.22700
C1431       C  0.24550137  0.92954319  0.05846773     0.20300
C1432       C  0.26537533  0.95363223  0.07220428     0.25400
C1433       C  0.29723831  0.96465576  0.07014793    -0.22600
C1434       C  0.30895848  0.95217004  0.05304806     0.20300
F1435       F  0.33963414  0.96232160  0.05075380    -0.12600
F1436       F  0.30058089  0.91576993  0.02333416    -0.14900
F1437       F  0.25338721  0.96450725  0.08917043    -0.15000
F1438       F  0.21476257  0.91809069  0.06189688    -0.12600
C1439       C  0.19314300  0.73360180  0.42395328     0.25400
C1440       C  0.16769140  0.70587159  0.42033687    -0.22700
C1441       C  0.14037804  0.69783663  0.43395523     0.20300
C1442       C  0.13763099  0.71784128  0.44919013     0.25400
C1443       C  0.16235670  0.74604606  0.45168607    -0.22600
C1444       C  0.19056102  0.75349827  0.43981257     0.20300
F1445       F  0.21479718  0.78067487  0.44211962    -0.12600
F1446       F  0.21969136  0.74213386  0.41089433    -0.14900
F1447       F  0.11035326  0.71003976  0.46087300    -0.15000
F1448       F  0.11578406  0.67087465  0.43157792    -0.12600
C1449       C  0.04521830  0.86094910  0.44452699     0.25400
C1450       C  0.02421324  0.83530972  0.43240449    -0.22700
C1451       C  0.02787885  0.81055420  0.43418430     0.20300
C1452       C  0.05242557  0.81154273  0.44685198     0.25400
C1453       C  0.07437196  0.83747675  0.45804616    -0.22600
C1454       C  0.07017590  0.86206731  0.45715377     0.20300
F1455       F  0.08997938  0.88699685  0.46856316    -0.12600
F1456       F  0.04198598  0.88517029  0.44349801    -0.14900
F1457       F  0.05542471  0.78716306  0.44705670    -0.15000
F1458       F  0.00904319  0.78587261  0.42199746    -0.12600
C1459       C  0.23409846  0.92055388  0.43836869     0.25400
C1460       C  0.24100986  0.91874547  0.46329968    -0.22700
C1461       C  0.27149177  0.93747297  0.47080289     0.20300
C1462       C  0.29409196  0.95662800  0.45404750     0.25400
C1463       C  0.28734403  0.95808952  0.42920961    -0.22600
C1464       C  0.25707090  0.93985959  0.42149931     0.20300
F1465       F  0.24963455  0.94104383  0.39764362    -0.12600
F1466       F  0.20529073  0.90348678  0.43017766    -0.14900
F1467       F  0.32304785  0.97334279  0.46211572    -0.15000
F1468       F  0.27997487  0.93739760  0.49453359    -0.12600
C1469       C  0.06862611  0.72127412  0.95366164     0.25400
C1470       C  0.07029839  0.74885403  0.95287935    -0.22700
C1471       C  0.04802683  0.75196189  0.93922065     0.20300
C1472       C  0.02611094  0.72879674  0.92567746     0.25400
C1473       C  0.02561927  0.70189885  0.92548495    -0.22600
C1474       C  0.04662514  0.69814287  0.94001506     0.20300
F1475       F  0.04650912  0.67221356  0.94023616    -0.12600
F1476       F  0.08908088  0.71690365  0.96667986    -0.14900
F1477       F  0.00660561  0.73328662  0.91144576    -0.15000
F1478       F  0.04781224  0.77772639  0.93821767    -0.12600
C1479       C  0.20017271  0.95534166  0.91515962     0.25400
C1480       C  0.18527377  0.97022693  0.92465201    -0.22700
C1481       C  0.17388627  0.96466079  0.94916060     0.20300
C1482       C  0.17466572  0.94251786  0.96307858     0.25400
C1483       C  0.18693749  0.92575513  0.95271461    -0.22600
C1484       C  0.20109883  0.93327269  0.92915398     0.20300
F1485       F  0.21264694  0.91712256  0.91862218    -0.12600
F1486       F  0.21147604  0.96051727  0.89152869    -0.14900
F1487       F  0.16128387  0.93589352  0.98603248    -0.15000
F1488       F  0.15912561  0.97845591  0.95870726    -0.12600
C1489       C  0.29819384  0.84639777  0.56315548     0.25400
C1490       C  0.28945711  0.82299919  0.57978813    -0.22700
C1491       C  0.25986842  0.79879997  0.57861324     0.20300
C1492       C  0.23881446  0.79868903  0.56165412     0.25400
C1493       C  0.24718429  0.82286064  0.54569145    -0.22600
C1494       C  0.27757129  0.84624070  0.54613342     0.20300
F1495       F  0.28731835  0.86973675  0.53066836    -0.12600
F1496       F  0.32664580  0.87000283  0.56391679    -0.14900
F1497       F  0.20992865  0.77571514  0.56180828    -0.15000
F1498       F  0.25077167  0.77617530  0.59493438    -0.12600
C1499       C  0.31339790  0.85252268  0.95737906     0.25400
C1500       C  0.30659526  0.84371526  0.93280031    -0.22700
C1501       C  0.27670378  0.83423138  0.92440795     0.20300
C1502       C  0.25416239  0.83420842  0.94020524     0.25400
C1503       C  0.26114792  0.84360644  0.96468982    -0.22600
C1504       C  0.29088389  0.85239577  0.97320622     0.20300
F1505       F  0.29850982  0.86191058  0.99668955    -0.12600
F1506       F  0.34223330  0.86256792  0.96573355    -0.14900
F1507       F  0.22541009  0.82442341  0.93174042    -0.15000
F1508       F  0.26944722  0.82508270  0.90079305    -0.12600
C1509       C  0.20159550  0.94930227  0.55581919     0.25400
C1510       C  0.17496093  0.92789210  0.54424951    -0.22700
C1511       C  0.14869448  0.93124428  0.54440207     0.20300
C1512       C  0.14851503  0.95430757  0.55727140     0.25400
C1513       C  0.17449349  0.97428910  0.57027546    -0.22600
C1514       C  0.20120487  0.97195838  0.56884487     0.20300
F1515       F  0.22624755  0.99013871  0.58180468    -0.12600
F1516       F  0.22803182  0.94785784  0.55540234    -0.14900
F1517       F  0.12234948  0.95620872  0.55828565    -0.15000
F1518       F  0.12266023  0.91131799  0.53350060    -0.12600
C1519       C  0.06768484  0.72936444  0.57566581     0.25400
C1520       C  0.04525018  0.70181357  0.56727592    -0.22700
C1521       C  0.04382831  0.69648333  0.54176884     0.20300
C1522       C  0.06477753  0.71778436  0.52519105     0.25400
C1523       C  0.08809526  0.74479126  0.53373762    -0.22600
C1524       C  0.08916925  0.75035292  0.55917790     0.20300
F1525       F  0.11078146  0.77623370  0.56812288    -0.12600
F1526       F  0.06913252  0.73581341  0.60008276    -0.14900
F1527       F  0.06300612  0.71138332  0.50075723    -0.15000
F1528       F  0.02327849  0.67011819  0.53290395    -0.12600
C1529       C  0.44244163  0.87983397  0.83284387     0.25400
C1530       C  0.43430786  0.85384031  0.82000713    -0.22700
C1531       C  0.40800109  0.82813749  0.82783393     0.20300
C1532       C  0.38841254  0.82920865  0.84613334     0.25400
C1533       C  0.39597698  0.85553723  0.85810797    -0.22600
C1534       C  0.42400059  0.88034411  0.85228659     0.20300
F1535       F  0.43424412  0.90466879  0.86606191    -0.12600
F1536       F  0.46849092  0.90483381  0.82663599    -0.14900
F1537       F  0.36221125  0.80443553  0.85248416    -0.15000
F1538       F  0.40147501  0.80203291  0.81804482    -0.12600
C1539       C  0.07388636  0.94627765  0.83408725     0.25400
C1540       C  0.08416394  0.93638301  0.81379106    -0.22700
C1541       C  0.11465413  0.94166451  0.81308243     0.20300
C1542       C  0.13456461  0.95706623  0.83210938     0.25400
C1543       C  0.12410875  0.96683194  0.85229272    -0.22600
C1544       C  0.09343603  0.96064777  0.85343662     0.20300
F1545       F  0.08212323  0.46398400  0.87774587    -0.12600
F1546       F  0.04479375  0.94202938  0.83512822    -0.14900
F1547       F  0.16413199  0.96273328  0.83077398    -0.15000
F1548       F  0.12514671  0.93204417  0.79394243    -0.12600
C1549       C  0.12818075  0.95920798  0.66330485     0.25400
C1550       C  0.12275574  0.97728467  0.64730133    -0.22700
C1551       C  0.09505694  0.97793561  0.64951102     0.20300
C1552       C  0.07437542  0.96295993  0.66890272     0.25400
C1553       C  0.07952952  0.94453995  0.68476321    -0.22600
C1554       C  0.10651048  0.94260815  0.68167249     0.20300
F1555       F  0.11178088  0.92460142  0.69649113    -0.12600
F1556       F  0.15418445  0.95718818  0.66073760    -0.14900
F1557       F  0.04880005  0.96566777  0.67170849    -0.15000
F1558       F  0.08719327  0.99168296  0.63217511    -0.12600
C1559       C  0.37303550  0.84565837  0.68142931     0.25400
C1560       C  0.37442801  0.83618931  0.65735689    -0.22700
C1561       C  0.39842322  0.82995142  0.65159007     0.20300
C1562       C  0.41968414  0.83291864  0.66943791     0.25400
C1563       C  0.42100186  0.84711769  0.69171670    -0.22600
C1564       C  0.39766102  0.85405752  0.69714173     0.20300
F1565       F  0.39838832  0.86850686  0.71805517    -0.12600
F1566       F  0.34792722  0.84672228  0.68998903    -0.14900
F1567       F  0.44029214  0.82370901  0.66426449    -0.15000
F1568       F  0.40218972  0.82194526  0.62849793    -0.12600
C1569       C  0.04425691  0.67060598  0.83454547     0.25400
C1570       C  0.02634357  0.64804560  0.85155421    -0.22700
C1571       C  0.02819528  0.62220681  0.85122683     0.20300
C1572       C  0.04616799  0.61822164  0.83318726     0.25400
C1573       C  0.06359661  0.64052807  0.81575178    -0.22600
C1574       C  0.06287193  0.66695231  0.81687104     0.20300
F1575       F  0.08042774  0.68928530  0.80096193    -0.12600
F1576       F  0.04398645  0.69633845  0.83532267    -0.14900
F1577       F  0.04665757  0.59257986  0.83280950    -0.15000
F1578       F  0.01357186  0.60128937  0.86894010    -0.12600
C1579       C  0.12723883  0.53529185  0.85354463     0.25400
C1580       C  0.15475711  0.53419570  0.85360001    -0.22700
C1581       C  0.17819642  0.55102113  0.83631249     0.20300
C1582       C  0.17388091  0.56817811  0.81872706     0.25400
C1583       C  0.14582135  0.56832302  0.81796086    -0.22600
C1584       C  0.12255917  0.55180288  0.83555628     0.20300
F1585       F  0.09521387  0.55148497  0.83516358    -0.12600
F1586       F  0.10523703  0.52102079  0.87125995    -0.14900
F1587       F  0.19696493  0.58450375  0.80230548    -0.15000
F1588       F  0.20530631  0.55087331  0.83660830    -0.12600
C1589       C  0.18128253  0.57192382  0.68660093     0.25400
C1590       C  0.15553701  0.57612198  0.68808279    -0.22700
C1591       C  0.13394176  0.56543877  0.66920148     0.20300
C1592       C  0.13863554  0.55199273  0.64875051     0.25400
C1593       C  0.16309691  0.54602413  0.64802313    -0.22600
C1594       C  0.18462681  0.55629443  0.66696019     0.20300
F1595       F  0.20869026  0.55103075  0.66645140    -0.12600
F1596       F  0.20290434  0.58270119  0.70423844    -0.14900
F1597       F  0.11961632  0.54534307  0.62938609    -0.15000
F1598       F  0.10810813  0.56789234  0.67067159    -0.12600
C1599       C  0.06723034  0.62492470  0.66726593     0.25400
C1600       C  0.07852087  0.64680384  0.68524034    -0.22700
C1601       C  0.07472164  0.67145553  0.68211703     0.20300
C1602       C  0.05900504  0.67368420  0.66175046     0.25400
C1603       C  0.04720174  0.65146868  0.64416364    -0.22600
C1604       C  0.05233924  0.62758912  0.64664424     0.20300
F1605       F  0.04331716  0.60702456  0.62893278    -0.12600
F1606       F  0.07040147  0.60076775  0.66982856    -0.14900
F1607       F  0.05500394  0.69736364  0.65926475    -0.15000
F1608       F  0.08601894  0.69318171  0.69887224    -0.12600
C1609       C  0.45319639  0.62385510  0.82809983     0.25400
C1610       C  0.45838608  0.61560343  0.85149633    -0.22700
C1611       C  0.45021586  0.58633031  0.85599981     0.20300
C1612       C  0.43946050  0.56611774  0.83685146     0.25400
C1613       C  0.43413910  0.57414187  0.81318870    -0.22600
C1614       C  0.44036273  0.60320644  0.80936007     0.20300
F1615       F  0.43433369  0.61178651  0.78738033    -0.12600
F1616       F  0.46101131  0.65207925  0.82332072    -0.14900
F1617       F  0.43520557  0.53889573  0.84133550    -0.15000
F1618       F  0.45383666  0.57754708  0.87878368    -0.12600
C1619       C  0.34504482  0.89904526  0.81561677     0.25400
C1620       C  0.36965102  0.92788442  0.81469708    -0.22700
C1621       C  0.38962860  0.93789483  0.83482797     0.20300
C1622       C  0.38530393  0.91955221  0.85509265     0.25400
C1623       C  0.36248947  0.89022103  0.85491063    -0.22600
C1624       C  0.34186028  0.88023420  0.83536973     0.20300
F1625       F  0.31822630  0.85246211  0.83576956    -0.12600
F1626       F  0.32391691  0.88917378  0.79757723    -0.14900
F1627       F  0.40299970  0.93063809  0.87520707    -0.15000
F1628       F  0.41347554  0.96555362  0.83491444    -0.12600
C1629       C  0.46911178  0.62268562  0.66433802     0.25400
C1630       C  0.48026675  0.61413829  0.64379894    -0.22700
C1631       C  0.47580834  0.58567312  0.64288393     0.20300
C1632       C  0.46202340  0.56646450  0.66291184     0.25400
C1633       C  0.45001007  0.57455283  0.68334543    -0.22600
C1634       C  0.45334102  0.60279468  0.68367960     0.20300
F1635       F  0.44086001  0.61092395  0.70248155    -0.12600
F1636       F  0.47317476  0.65018186  0.66544094    -0.14900
F1637       F  0.46009069  0.53975671  0.66221936    -0.15000
F1638       F  0.48468040  0.57643134  0.62250247    -0.12600
C1639       C  0.33614229  0.90533901  0.68125807     0.25400
C1640       C  0.36721479  0.92554712  0.68419319    -0.22700
C1641       C  0.38949845  0.92337643  0.66949424     0.20300
C1642       C  0.38088180  0.90072511  0.65256872     0.25400
C1643       C  0.34986769  0.87951301  0.65054810    -0.22600
C1644       C  0.32749087  0.88259374  0.66448475     0.20300
F1645       F  0.29736810  0.86250427  0.66294827    -0.12600
F1646       F  0.31428025  0.90715816  0.69523023    -0.14900
F1647       F  0.40285493  0.89889216  0.63877716    -0.15000
F1648       F  0.41968463  0.94252182  0.67233169    -0.12600
C1649       C  0.47192210  0.68760466  0.56583454     0.25400
C1650       C  0.47381362  0.66186200  0.56704436    -0.22700
C1651       C  0.45185015  0.63712040  0.55452693     0.20300
C1652       C  0.42767982  0.63776821  0.54207916     0.25400
C1653       C  0.42524981  0.66336460  0.54153246    -0.22600
C1654       C  0.44819170  0.68845836  0.55314468     0.20300
F1655       F  0.44696250  0.71374604  0.55337540    -0.12600
F1656       F  0.49183820  0.71149498  0.57839789    -0.14900
F1657       F  0.40671067  0.61337573  0.53068659    -0.15000
F1658       F  0.45338705  0.61198793  0.55499301    -0.12600
C1659       C  0.29623911  0.54805366  0.44857811     0.25400
C1660       C  0.32207599  0.56950875  0.46104248    -0.22700
C1661       C  0.34816128  0.56593067  0.46254385     0.20300
C1662       C  0.34964522  0.54363181  0.44955022     0.25400
C1663       C  0.32516492  0.52452081  0.43480851    -0.22600
C1664       C  0.29808899  0.52627365  0.43519508     0.20300
F1665       F  0.27452822  0.50892370  0.42050546    -0.12600
F1666       F  0.26949923  0.54889585  0.44799406    -0.14900
F1667       F  0.37611620  0.54227308  0.44954525    -0.15000
F1668       F  0.37292726  0.58486554  0.47539350    -0.12600
C1669       C  0.24764685  0.56229568  0.57942979     0.25400
C1670       C  0.21754785  0.54303364  0.57187915    -0.22700
C1671       C  0.21027643  0.54304395  0.54698535     0.20300
C1672       C  0.23212925  0.56256935  0.53014651     0.25400
C1673       C  0.26153847  0.58338290  0.53795944    -0.22600
C1674       C  0.26944003  0.58250084  0.56262026     0.20300
F1675       F  0.29755499  0.60206446  0.57074535    -0.12600
F1676       F  0.25555326  0.56221495  0.60333516    -0.14900
F1677       F  0.22412129  0.56145704  0.50611977    -0.15000
F1678       F  0.18137312  0.52550948  0.53917519    -0.12600
C1679       C  0.43159187  0.78219632  0.47378677     0.25400
C1680       C  0.41149036  0.75303415  0.46754158    -0.22700
C1681       C  0.41419955  0.74354596  0.44381724     0.20300
C1682       C  0.43551288  0.76304566  0.42636936     0.25400
C1683       C  0.45415732  0.79271709  0.43198212    -0.22600
C1684       C  0.45247369  0.80190646  0.45611435     0.20300
F1685       F  0.46979440  0.83031813  0.46223275    -0.12600
F1686       F  0.43002293  0.79201775  0.49667068    -0.14900
F1687       F  0.43770283  0.75297845  0.40374807    -0.15000
F1688       F  0.39643746  0.71521697  0.43758532    -0.12600
C1689       C  0.22465525  0.67211865  0.45901433     0.25400
C1690       C  0.25546829  0.68345414  0.45115801    -0.22700
C1691       C  0.26419446  0.69495081  0.42698792     0.20300
C1692       C  0.24204979  0.69324140  0.41046864     0.25400
C1693       C  0.21105409  0.68064914  0.41806747    -0.22600
C1694       C  0.20269831  0.67095589  0.44267670     0.20300
F1695       F  0.17283479  0.65803376  0.45027764    -0.12600
F1696       F  0.21542531  0.66025059  0.48207302    -0.14900
F1697       F  0.25048904  0.70225117  0.38660178    -0.15000
F1698       F  0.29346708  0.70501857  0.41861318    -0.12600
C1699       C  0.33543830  0.77500839  0.54327426     0.25400
C1700       C  0.32655897  0.74639806  0.55107475    -0.22700
C1701       C  0.31199041  0.73639948  0.57434602     0.20300
C1702       C  0.30764015  0.75515234  0.59011561     0.25400
C1703       C  0.31852531  0.78443846  0.58314147    -0.22600
C1704       C  0.33164448  0.79401201  0.55926860     0.20300
F1705       F  0.34350704  0.82243444  0.55234226    -0.12600
F1706       F  0.35049050  0.78534062  0.52121582    -0.14900
F1707       F  0.29470064  0.74531942  0.61293701    -0.15000
F1708       F  0.30355669  0.70888689  0.58235409    -0.12600
C1709       C  0.22067193  0.56481616  0.96469423     0.25400
C1710       C  0.25011122  0.58444210  0.95536908    -0.22700
C1711       C  0.26052749  0.57871308  0.93292825     0.20300
C1712       C  0.24108763  0.55457087  0.91914475     0.25400
C1713       C  0.21081121  0.53613178  0.92745014    -0.22600
C1714       C  0.20085288  0.54103985  0.95053048     0.20300
F1715       F  0.17113003  0.52476204  0.95808167    -0.12600
F1716       F  0.21022956  0.57016999  0.98634592    -0.14900
F1717       F  0.25078810  0.55071470  0.89653803    -0.10200
F1718       F  0.28907052  0.59736024  0.92381903    -0.12600
C1719       C  0.19011561  0.65255808  0.04137897     0.25400
C1720       C  0.19737387  0.66055096  0.06612699    -0.22700
C1721       C  0.22749878  0.66975498  0.07379010     0.20300
C1722       C  0.24947594  0.66955112  0.05744563     0.25400
C1723       C  0.24181619  0.66000553  0.03303051    -0.22600
C1724       C  0.21208876  0.65227448  0.02498004     0.20300
F1725       F  0.20370736  0.64291535  0.00156211    -0.12600
F1726       F  0.16121798  0.64324828  0.03346953    -0.14900
F1727       F  0.27828330  0.67874536  0.06554120    -0.15000
F1728       F  0.23540219  0.67828832  0.09745403    -0.12600
C1729       C  0.41718067  0.68526215  0.93756134     0.25400
C1730       C  0.41827280  0.67789954  0.96249583    -0.22700
C1731       C  0.43914139  0.66805182  0.96877661     0.20300
C1732       C  0.45749652  0.66473397  0.95068782     0.25400
C1733       C  0.45579926  0.67123420  0.92577147    -0.22600
C1734       C  0.43552809  0.68162615  0.91933066     0.20300
F1735       F  0.43344678  0.68816460  0.89534627    -0.12600
F1736       F  0.39769550  0.69502004  0.93068175    -0.14900
F1737       F  0.47623053  0.65405909  0.95748481    -0.15000
F1738       F  0.44186268  0.66141721  0.99260617    -0.12600
C1739       C  0.32689728  0.53687837  0.05232400     0.25400
C1740       C  0.31009625  0.52826908  0.07480394    -0.22700
C1741       C  0.29137252  0.54050436  0.08136101     0.20300
C1742       C  0.29224002  0.56332887  0.06707512     0.25400
C1743       C  0.31252805  0.57461658  0.04655560    -0.22600
C1744       C  0.32828476  0.55997245  0.03844175     0.20300
F1745       F  0.34705483  0.56954895  0.01803008    -0.12600
F1746       F  0.34493181  0.52534398  0.04524871    -0.14900
F1747       F  0.27572800  0.57622746  0.07472846    -0.15000
F1748       F  0.27418581  0.53192120  0.10262949    -0.12600
C1749       C  0.47879708  0.77110063  0.06973632     0.25400
C1750       C  0.47847451  0.79748648  0.07205945    -0.22700
C1751       C  0.45796883  0.80239659  0.05793523     0.20300
C1752       C  0.43599699  0.78014443  0.04361876     0.25400
C1753       C  0.43443986  0.75262966  0.04296607    -0.22600
C1754       C  0.45750482  0.74912920  0.05493982     0.20300
F1755       F  0.45876986  0.72390993  0.05339144    -0.12600
F1756       F  0.49806394  0.76561972  0.08336247    -0.14900
F1757       F  0.41533566  0.78514831  0.03158264    -0.15000
F1758       F  0.45815220  0.82831856  0.05918264    -0.12600
C1759       C  0.31390905  0.76018617  0.94855833     0.25400
C1760       C  0.33903514  0.76146759  0.96131344    -0.22700
C1761       C  0.36588088  0.78853778  0.96292011     0.20300
C1762       C  0.36813034  0.81326435  0.95080071     0.25400
C1763       C  0.34375079  0.81129760  0.93665399    -0.22600
C1764       C  0.31637075  0.78473631  0.93626669     0.20300
F1765       F  0.29287387  0.78178934  0.92210282    -0.12600
F1766       F  0.28737446  0.73463604  0.94651091    -0.14900
F1767       F  0.39475753  0.83889509  0.95172809    -0.15000
F1768       F  0.39005853  0.79101970  0.97586292    -0.12600
O1769       O  0.84915866  0.11832049  0.02980197    -0.79100
O1770       O  0.85873622  0.22952109  0.97643767    -0.63800
O1771       O  0.84449757  0.16921255  0.02416895    -1.10400
C1772       C  0.76606954  0.11077946  0.96841490     1.07800
O1773       O  0.80883736  0.21301888  0.97889916    -0.77000
O1774       O  0.76175025  0.16223585  0.99436146    -0.64500
Ni1775     Ni  0.87485831  0.15975524  0.03383340     1.34900
C1776       C  0.76284032  0.15620934  0.01691193     0.86600
O1777       O  0.88769204  0.22847817  0.01906399    -0.77500
O1778       O  0.90309490  0.20012102  0.03890872    -0.87800
C1779       C  0.83536640  0.23274194  0.97204754     0.86100
O1780       O  0.89227758  0.16154565  0.00201903    -0.66000
O1781       O  0.77203515  0.13421361  0.95664117    -0.85300
C1782       C  0.89693223  0.17751656  0.98300457     0.87000
C1783       C  0.90624114  0.22506018  0.03309254     1.08500
H1784       H  0.83130548  0.16296109  0.96917830     0.40300
O1785       O  0.82212001  0.16850110  0.98249827    -1.07900
O1786       O  0.78309131  0.15024086  0.02492040    -0.64600
Ni1787     Ni  0.81041652  0.13947876  0.00751512     1.26300
O1788       O  0.88458166  0.19380810  0.98050897    -0.64800
O1789       O  0.77709708  0.11009627  0.98935810    -0.77100
C1790       C  0.82118076  0.10237149  0.03628422     0.86300
O1791       O  0.80177197  0.11099643  0.03302998    -0.64300
Ni1792     Ni  0.79112769  0.17370648  0.96774746     1.27400
Ni1793     Ni  0.85451516  0.19954488  0.00008963     1.26100
H1794       H  0.83721854  0.17428002  0.03902530     0.40900
O1795       O  0.90401884  0.19130537  0.52310814    -0.79100
O1796       O  0.80246237  0.19541346  0.47064115    -0.63800
O1797       O  0.84359981  0.17728070  0.52096866    -1.10400
C1798       C  0.82168087  0.09558077  0.47299198     1.07800
O1799       O  0.76468918  0.14995037  0.47320881    -0.77000
O1800       O  0.76965905  0.11323265  0.50435015    -0.64500
Ni1801     Ni  0.87921354  0.20741254  0.53495384     1.34900
C1802       C  0.78202143  0.10621821  0.52136418     0.86600
O1803       O  0.82514047  0.21981107  0.51505112    -0.77500
O1804       O  0.85519093  0.22412959  0.54724099    -0.87800
C1805       C  0.77531922  0.17611814  0.46568661     0.86100
O1806       O  0.89506852  0.23524621  0.50798615    -0.66000
O1807       O  0.79780019  0.09767222  0.46862719    -0.85300
C1808       C  0.88761123  0.23297346  0.48545324     0.87000
C1809       C  0.83571284  0.22928242  0.53651844     1.08500
H1810       H  0.83479467  0.16187405  0.46433374     0.40300
O1811       O  0.82281518  0.15526448  0.47953703    -1.07900
O1812       O  0.81110994  0.11720500  0.52282031    -0.64600
Ni1813     Ni  0.84580025  0.14681769  0.50317968     1.26300
O1814       O  0.86159678  0.21336997  0.47822671    -0.64800
O1815       O  0.84482292  0.11533230  0.48424933    -0.77100
C1816       C  0.89957365  0.16645760  0.53024338     0.86300
O1817       O  0.87367921  0.14382592  0.52635836    -0.64300
Ni1818     Ni  0.78333560  0.12537710  0.47142968     1.27400
Ni1819     Ni  0.82402068  0.18780604  0.49631929     1.26100
H1820       H  0.82893492  0.16837513  0.53452595     0.40900
N1821       N  0.90468004  0.00061358  0.71039694    -0.34800
N1822       N  0.87032245  0.45474480  0.74806048    -0.55300
N1823       N  0.89865752  0.00043928  0.78471521    -0.34800
N1824       N  0.92343167  0.04586165  0.74724176    -0.55300
C1825       C  0.88151588  0.47759712  0.69698067     0.28800
C1826       C  0.91234051  0.02471052  0.69641814     0.28800
C1827       C  0.87281026  0.47602883  0.79750838     0.28800
C1828       C  0.90078019  0.02367733  0.79709997     0.28800
C1829       C  0.86982278  0.43901279  0.72820952     0.37400
C1830       C  0.86859399  0.43872704  0.76831503     0.37400
C1831       C  0.94177440  0.06112757  0.72781310     0.37400
C1832       C  0.93643645  0.06127590  0.76774507     0.37400
C1833       C  0.87764988  0.48761581  0.67427925    -0.20100
C1834       C  0.89824634  0.01660470  0.67371786    -0.20100
C1835       C  0.86206418  0.48474103  0.81778343    -0.20100
C1836       C  0.88136398  0.01397781  0.81781084    -0.20100
C1837       C  0.86719955  0.41266392  0.73576302    -0.21100
C1838       C  0.86724379  0.41275743  0.76120405    -0.21100
C1839       C  0.96675130  0.08630528  0.73601101    -0.21100
C1840       C  0.96331761  0.08640415  0.76136250    -0.21100
C1841       C  0.87098418  0.44812383  0.70342127    -0.16500
C1842       C  0.93463133  0.05327728  0.70280353    -0.16500
C1843       C  0.92317100  0.05301067  0.79183333    -0.16500
C1844       C  0.86663719  0.44719655  0.79282713    -0.16500
H1845       H  0.86458481  0.47463130  0.65892860     0.16400
H1846       H  0.90030763  0.03082302  0.65835691     0.16400
H1847       H  0.84547507  0.47080078  0.83173267     0.16400
H1848       H  0.87836487  0.02720883  0.83170486     0.16400
H1849       H  0.86571869  0.39537319  0.72414380     0.14700
H1850       H  0.86628293  0.39554658  0.77291376     0.14700
H1851       H  0.98530767  0.10290928  0.72488007     0.14700
H1852       H  0.97873400  0.10297210  0.77369553     0.14700
H1853       H  0.91494350  0.00012157  0.72686092     0.28000
H1854       H  0.91335304  0.00116943  0.77044682     0.28000
N1855       N  0.62156991  0.11604739  0.71620505    -0.34800
N1856       N  0.59279419  0.13695782  0.75119569    -0.55300
N1857       N  0.60723121  0.10655751  0.78877319    -0.34800
N1858       N  0.63728023  0.08701182  0.75325612    -0.55300
C1859       C  0.61858001  0.13623003  0.70282850     0.28800
C1860       C  0.64198432  0.11056491  0.70399658     0.28800
C1861       C  0.60027314  0.12429879  0.80218154     0.28800
C1862       C  0.62388444  0.09870646  0.80324272     0.28800
C1863       C  0.58055916  0.13977975  0.72998273     0.37400
C1864       C  0.57381535  0.13583532  0.76977398     0.37400
C1865       C  0.63988244  0.07350354  0.73295224     0.37400
C1866       C  0.63270168  0.06898407  0.77260476     0.37400
C1867       C  0.63824215  0.14463056  0.68229296    -0.20100
C1868       C  0.65316044  0.12840192  0.68306819    -0.20100
C1869       C  0.61332760  0.12845502  0.82525050    -0.20100
C1870       C  0.62849165  0.11244076  0.82585846    -0.20100
C1871       C  0.55376042  0.14074030  0.73511007    -0.21100
C1872       C  0.54965016  0.13850754  0.76042926    -0.21100
C1873       C  0.63699547  0.04665254  0.73936629    -0.21100
C1874       C  0.63248460  0.04380785  0.76464972    -0.21100
C1875       C  0.59420325  0.14226158  0.70633806    -0.16500
C1876       C  0.64574834  0.08610944  0.70903546    -0.16500
C1877       C  0.63122335  0.07656278  0.79735584    -0.16500
C1878       C  0.57907387  0.13331073  0.79499218    -0.16500
H1879       H  0.64003367  0.15939465  0.66748344     0.16400
H1880       H  0.66875353  0.12821280  0.66898511     0.16400
H1881       H  0.61119065  0.14087251  0.84034004     0.16400
H1882       H  0.64037012  0.11013848  0.84153915     0.16400
H1883       H  0.53875690  0.14287253  0.72208441     0.14700
H1884       H  0.53105312  0.13878105  0.77073457     0.14700
H1885       H  0.63800279  0.03082993  0.72720224     0.14700
H1886       H  0.62950651  0.02545846  0.77589614     0.14700
H1887       H  0.60613097  0.10271616  0.72995148     0.28000
H1888       H  0.59711427  0.09672501  0.77226370     0.28000
N1889       N  0.50828022  0.39224520  0.78675487    -0.34800
N1890       N  0.55281096  0.42528640  0.74913120    -0.55300
N1891       N  0.50407042  0.39807453  0.71265096    -0.34800
N1892       N  0.96066498  0.36206192  0.75081591    -0.55300
C1893       C  0.53457195  0.40150870  0.79918538     0.28800
C1894       C  0.98598902  0.37092163  0.80044068     0.28800
C1895       C  0.52914869  0.41275045  0.69770792     0.28800
C1896       C  0.98029803  0.38048159  0.69816026     0.28800
C1897       C  0.56812537  0.43981294  0.76930729     0.37400
C1898       C  0.56587774  0.44359634  0.72961567     0.37400
C1899       C  0.94307939  0.35372682  0.77181870     0.37400
C1900       C  0.94110890  0.35379831  0.73177360     0.37400
C1901       C  0.52881633  0.38474302  0.82062551    -0.20100
C1902       C  0.99797607  0.36592817  0.82164087    -0.20100
C1903       C  0.52147424  0.40400836  0.67352280    -0.20100
C1904       C  0.99056855  0.38465620  0.67362562    -0.20100
C1905       C  0.59102062  0.46754174  0.76257781    -0.21100
C1906       C  0.58977295  0.46986098  0.73732580    -0.21100
C1907       C  0.91237190  0.33893202  0.76601925    -0.21100
C1908       C  0.91121477  0.33758647  0.74083240    -0.21100
C1909       C  0.56208362  0.42746472  0.79342708    -0.16500
C1910       C  0.95459381  0.35914281  0.79605791    -0.16500
C1911       C  0.94943242  0.36242517  0.70653842    -0.16500
C1912       C  0.55772523  0.43617822  0.70478658    -0.16500
H1913       H  0.54494201  0.38718430  0.83476032     0.16400
H1914       H  0.98542783  0.35079807  0.83665293     0.16400
H1915       H  0.53608443  0.41168258  0.65708680     0.16400
H1916       H  0.97774448  0.37578922  0.65709807     0.16400
H1917       H  0.60691144  0.48426688  0.77456965     0.14700
H1918       H  0.60458034  0.48871294  0.72592210     0.14700
H1919       H  0.89248834  0.32987448  0.77826067     0.14700
H1920       H  0.89030613  0.32686878  0.73055468     0.14700
H1921       H  0.50460036  0.40334308  0.77235952     0.28000
H1922       H  0.50241641  0.40268527  0.73104805     0.28000
C1923       C  0.99555649  0.16208273  0.58606174     0.04100
C1924       C  0.52797840  0.18065972  0.58620631     0.04100
C1925       C  0.54488073  0.17629981  0.60473880    -0.16400
C1926       C  0.53050325  0.15555307  0.62367323     0.04100
C1927       C  0.99849289  0.13803169  0.62405888     0.04100
C1928       C  0.98146833  0.14128276  0.60529005    -0.16400
H1929       H  0.95671686  0.12785580  0.60605826     0.06100
H1930       H  0.56965953  0.18945287  0.60463888     0.06100
C1931       C  0.69199836  0.02372180  0.59095871     0.04100
C1932       C  0.67107216  0.49603458  0.58827455     0.04100
C1933       C  0.64749966  0.48274322  0.60625565    -0.16400
C1934       C  0.64455209  0.49859077  0.62574654     0.04100
C1935       C  0.66493797  0.02438579  0.62886548     0.04100
C1936       C  0.68783839  0.03883153  0.61073516    -0.16400
H1937       H  0.70239604  0.06224870  0.61194135     0.06100
H1938       H  0.63193229  0.45944549  0.60573189     0.06100
C1939       C  0.82690895  0.34389505  0.91202011     0.04100
C1940       C  0.84490813  0.32967774  0.91353665     0.04100
C1941       C  0.86636762  0.33443333  0.89446039    -0.16400
C1942       C  0.87065352  0.35280290  0.87415959     0.04100
C1943       C  0.85347906  0.36766087  0.87308225     0.04100
C1944       C  0.83215526  0.36319568  0.89205410    -0.16400
H1945       H  0.81921562  0.37483242  0.89111902     0.06100
H1946       H  0.87941155  0.32287663  0.89500283     0.06100
C1947       C  0.81059024  0.32756841  0.59773712     0.04100
C1948       C  0.82250573  0.30837588  0.60070132     0.04100
C1949       C  0.84141447  0.31199189  0.62080032    -0.16400
C1950       C  0.85158937  0.33605707  0.63665222     0.04100
C1951       C  0.83964615  0.35566978  0.63321726     0.04100
C1952       C  0.81891853  0.35060976  0.61422459    -0.16400
H1953       H  0.80960096  0.36530514  0.61187112     0.06100
H1954       H  0.84899217  0.29608158  0.62351533     0.06100
C1955       C  0.67430771  0.48705545  0.90908997     0.04100
C1956       C  0.68431450  0.01610647  0.91035300     0.04100
C1957       C  0.67413275  0.02957234  0.89332697    -0.16400
C1958       C  0.65514961  0.01402478  0.87408747     0.04100
C1959       C  0.64593875  0.48632827  0.87244461     0.04100
C1960       C  0.65300523  0.47158553  0.89073299    -0.16400
H1961       H  0.64209386  0.44797438  0.89055081     0.06100
H1962       H  0.68162575  0.05268780  0.89474407     0.06100
C1963       C  0.50659505  0.17838807  0.90761030     0.04100
C1964       C  0.97390747  0.16547857  0.90660800     0.04100
C1965       C  0.95829820  0.14558666  0.88762231    -0.16400
C1966       C  0.97428357  0.13845406  0.86967597     0.04100
C1967       C  0.50694903  0.15222517  0.87045117     0.04100
C1968       C  0.52237301  0.17184448  0.88919740    -0.16400
H1969       H  0.54721262  0.18244961  0.88927404     0.06100
H1970       H  0.93349772  0.13497925  0.88720593     0.06100
O1971       O  0.73118764  0.35270168  0.52060116    -0.79100
O1972       O  0.62608773  0.36144382  0.47255990    -0.63800
O1973       O  0.67390693  0.34647905  0.51947452    -1.10400
C1974       C  0.65522848  0.26907278  0.46400395     1.07800
O1975       O  0.59460023  0.31495643  0.47951515    -0.77000
O1976       O  0.59921150  0.26923705  0.49405866    -0.64500
Ni1977     Ni  0.71196595  0.37480516  0.53086223     1.34900
C1978       C  0.60895447  0.26953905  0.51550243     0.86600
O1979       O  0.65672076  0.39022883  0.51452341    -0.77500
O1980       O  0.69465521  0.39852541  0.54090485    -0.87800
C1981       C  0.59956147  0.33905233  0.47021791     0.86100
O1982       O  0.72763879  0.39733770  0.50147206    -0.66000
O1983       O  0.63485775  0.27403871  0.45449551    -0.85300
C1984       C  0.71758639  0.39893621  0.48053656     0.87000
C1985       C  0.67492194  0.40467688  0.53200029     1.08500
H1986       H  0.66592172  0.33210195  0.46427689     0.40300
O1987       O  0.65226681  0.32448446  0.47855169    -1.07900
O1988       O  0.63622058  0.28760931  0.52164758    -0.64600
Ni1989     Ni  0.67266302  0.31398007  0.50231160     1.26300
O1990       O  0.68912794  0.38369556  0.47542630    -0.64800
O1991       O  0.67047292  0.28189484  0.48319904    -0.77100
C1992       C  0.72351622  0.32778969  0.52976587     0.86300
O1993       O  0.69642815  0.30719286  0.52660141    -0.64300
Ni1994     Ni  0.61501482  0.29515211  0.46651935     1.27400
Ni1995     Ni  0.65303818  0.35698869  0.49579911     1.26100
H1996       H  0.66055666  0.33910300  0.53398964     0.40900
O1997       O  0.69202662  0.28532610  0.02223077    -0.79100
O1998       O  0.69608198  0.38930145  0.96832614    -0.63800
O1999       O  0.67937569  0.33056509  0.01752600    -1.10400
C2000       C  0.59613575  0.27293845  0.96518879     1.07800
O2001       O  0.64781509  0.37850604  0.97283630    -0.77000
O2002       O  0.60429969  0.33222089  0.99639504    -0.64500
Ni2003     Ni  0.71095749  0.32553961  0.03149055     1.34900
C2004       C  0.60267302  0.31924200  0.01662154     0.86600
O2005       O  0.72221477  0.39000639  0.01122072    -0.77500
O2006       O  0.73199249  0.36573977  0.04117569    -0.87800
C2007       C  0.67515454  0.39624913  0.96601692     0.86100
O2008       O  0.73738665  0.33474954  0.00330109    -0.66000
O2009       O  0.59990954  0.29763597  0.95786000    -0.85300
C2010       C  0.73698825  0.34335445  0.98145193     0.87000
C2011       C  0.73590895  0.38921717  0.03063652     1.08500
H2012       H  0.66413182  0.32498018  0.96149415     0.40300
O2013       O  0.65621022  0.32970258  0.97617871    -1.07900
O2014       O  0.61754568  0.30551540  0.02017082    -0.64600
Ni2015     Ni  0.64667309  0.29937216  0.00013728     1.26300
O2016       O  0.71816139  0.35182335  0.97462977    -0.64800
O2017       O  0.61307914  0.27001441  0.98137094    -0.77100
C2018       C  0.66512453  0.26592884  0.02869323     0.86300
O2019       O  0.64221147  0.26964156  0.02395936    -0.64300
Ni2020     Ni  0.62513785  0.33768166  0.96562771     1.27400
Ni2021     Ni  0.68952045  0.36016500  0.99301160     1.26100
H2022       H  0.67042017  0.33563943  0.03132937     0.40900
N2023       N  0.98452281  0.10080202  0.21424561    -0.34800
N2024       N  0.94082532  0.09244534  0.25383419    -0.55300
N2025       N  0.99126621  0.11365336  0.28786936    -0.34800
N2026       N  0.53540432  0.12545494  0.24869463    -0.55300
C2027       C  0.95950075  0.09475185  0.20075950     0.28800
C2028       C  0.50943667  0.11254461  0.19852903     0.28800
C2029       C  0.96828501  0.11275064  0.30200363     0.28800
C2030       C  0.51775620  0.13184654  0.29902839     0.28800
C2031       C  0.92073310  0.07919380  0.23554524     0.37400
C2032       C  0.92463106  0.08298326  0.27548340     0.37400
C2033       C  0.54911931  0.12042203  0.22904636     0.37400
C2034       C  0.55227628  0.12724701  0.26853992     0.37400
C2035       C  0.96877525  0.10205158  0.17609760    -0.20100
C2036       C  0.50016378  0.11406827  0.17487071    -0.20100
C2037       C  0.98022266  0.13070698  0.32216792    -0.20100
C2038       C  0.51156208  0.14334857  0.32004310    -0.20100
C2039       C  0.89138395  0.06315175  0.24566967    -0.21100
C2040       C  0.89408940  0.06410047  0.27075865    -0.21100
C2041       C  0.57488536  0.11915647  0.23632676    -0.21100
C2042       C  0.57671526  0.12314789  0.26144953    -0.21100
C2043       C  0.92852703  0.08078259  0.20993429    -0.16500
C2044       C  0.53954633  0.11867686  0.20444399    -0.16500
C2045       C  0.54639258  0.13402403  0.29260778    -0.16500
C2046       C  0.93711487  0.09224927  0.29923014    -0.16500
H2047       H  0.95509491  0.09875051  0.16002121     0.16400
H2048       H  0.51419301  0.12181151  0.15812881     0.16400
H2049       H  0.96748050  0.13358939  0.33729041     0.16400
H2050       H  0.52784678  0.15763511  0.33330727     0.16400
H2051       H  0.86995888  0.05119571  0.23627034     0.14700
H2052       H  0.87516658  0.05209313  0.28357329     0.14700
H2053       H  0.59056440  0.11561580  0.22470379     0.14700
H2054       H  0.59409035  0.12313820  0.27307824     0.14700
H2055       H  0.98425615  0.09400651  0.23237064     0.28000
H2056       H  0.98848369  0.09883821  0.27409152     0.28000
N2057       N  0.88953031  0.39287860  0.28300659    -0.34800
N2058       N  0.91113248  0.36778024  0.24555892    -0.55300
N2059       N  0.90299226  0.40243454  0.20782470    -0.34800
N2060       N  0.88244566  0.42876488  0.24510549    -0.55300
C2061       C  0.90331184  0.38103930  0.29685162     0.28800
C2062       C  0.88663879  0.41270903  0.29714411     0.28800
C2063       C  0.92144316  0.39401829  0.19604234     0.28800
C2064       C  0.90536882  0.42581238  0.19528398     0.28800
C2065       C  0.90661867  0.34949764  0.26474303     0.37400
C2066       C  0.91262513  0.35410830  0.22498530     0.37400
C2067       C  0.86919216  0.43494042  0.26453889     0.37400
C2068       C  0.87561691  0.43905821  0.22447836     0.37400
C2069       C  0.90936588  0.39365655  0.31995800    -0.20100
C2070       C  0.89782337  0.41256984  0.32049806    -0.20100
C2071       C  0.93628742  0.41277869  0.17611275    -0.20100
C2072       C  0.92552379  0.43239820  0.17527638    -0.20100
C2073       C  0.90450117  0.32370281  0.25637043    -0.21100
C2074       C  0.90808155  0.32653405  0.23102667    -0.21100
C2075       C  0.85435380  0.44976137  0.25616938    -0.21100
C2076       C  0.85803024  0.45194919  0.23081197    -0.21100
C2077       C  0.90873581  0.35788200  0.28961728    -0.16500
C2078       C  0.87314972  0.43001521  0.28975966    -0.16500
C2079       C  0.88763545  0.43944231  0.20042488    -0.16500
C2080       C  0.92287187  0.36835333  0.20177381    -0.16500
H2081       H  0.92046305  0.38951232  0.33524371     0.16400
H2082       H  0.89788286  0.42456273  0.33666239     0.16400
H2083       H  0.95261006  0.41206863  0.16308576     0.16400
H2084       H  0.93187488  0.44945904  0.16144411     0.16400
H2085       H  0.90176714  0.30530201  0.26744580     0.14700
H2086       H  0.90877482  0.31074951  0.21860299     0.14700
H2087       H  0.84267173  0.45873805  0.26709541     0.14700
H2088       H  0.84959856  0.46268420  0.21856599     0.14700
H2089       H  0.87989695  0.38584422  0.26577121     0.28000
H2090       H  0.88667841  0.39064656  0.22162360     0.28000
C2091       C  0.82958337  0.00873094  0.41577218     0.04100
C2092       C  0.81293743  0.47824758  0.41038646     0.04100
C2093       C  0.82000324  0.46630236  0.38948653    -0.16400
C2094       C  0.84366753  0.48406913  0.37232905     0.04100
C2095       C  0.85845935  0.01563485  0.37708730     0.04100
C2096       C  0.85181449  0.02670113  0.39822223    -0.16400
H2097       H  0.86367797  0.05016403  0.40065310     0.06100
H2098       H  0.80721628  0.44296365  0.38676908     0.06100
N2099       N  0.59604604  0.49668271  0.28801585    -0.34800
N2100       N  0.57700951  0.45149639  0.25082567    -0.55300
N2101       N  0.60215334  0.49657852  0.21332407    -0.34800
N2102       N  0.62393587  0.04163702  0.25098129    -0.55300
C2103       C  0.58839642  0.47259037  0.30207359     0.28800
C2104       C  0.61407065  0.02077022  0.30279048     0.28800
C2105       C  0.59842224  0.47317795  0.20031734     0.28800
C2106       C  0.62115485  0.01906313  0.20124704     0.28800
C2107       C  0.56091687  0.43494319  0.27060207     0.37400
C2108       C  0.56523046  0.43494097  0.23064087     0.37400
C2109       C  0.62439647  0.05798462  0.27039432     0.37400
C2110       C  0.62499937  0.05672955  0.23028087     0.37400
C2111       C  0.60198046  0.48078058  0.32490906    -0.20100
C2112       C  0.61781792  0.01162678  0.32597804    -0.20100
C2113       C  0.61641064  0.48239300  0.17885205    -0.20100
C2114       C  0.63025840  0.01045151  0.17992614    -0.20100
C2115       C  0.53897729  0.40758399  0.26299241    -0.21100
C2116       C  0.54175009  0.40758833  0.23761106    -0.21100
C2117       C  0.62599897  0.08368928  0.26203879    -0.21100
C2118       C  0.62604145  0.08275644  0.23660822    -0.21100
C2119       C  0.56740921  0.44366946  0.29545047    -0.16500
C2120       C  0.62440380  0.05016068  0.29548734    -0.16500
C2121       C  0.62679560  0.04768502  0.20594861    -0.16500
C2122       C  0.57682965  0.44395689  0.20625522    -0.16500
H2123       H  0.59984599  0.46656435  0.34029581     0.16400
H2124       H  0.63071207  0.02520448  0.34112039     0.16400
H2125       H  0.61786179  0.46887650  0.16441200     0.16400
H2126       H  0.64509763  0.02436369  0.16507906     0.16400
H2127       H  0.52305120  0.38938619  0.27453962     0.14700
H2128       H  0.52839643  0.38945262  0.22571071     0.14700
H2129       H  0.62687384  0.10116573  0.27311123     0.14700
H2130       H  0.62713758  0.09951671  0.22426014     0.14700
H2131       H  0.58605844  0.49704394  0.27137467     0.28000
H2132       H  0.58841192  0.49622838  0.22819403     0.28000
C2133       C  0.81777506  0.01123746  0.09446045     0.04100
C2134       C  0.81820830  0.48604381  0.08774685     0.04100
C2135       C  0.83372334  0.47621609  0.10307393    -0.16400
C2136       C  0.84822723  0.49104605  0.12452518     0.04100
C2137       C  0.84580904  0.01547454  0.13252049     0.04100
C2138       C  0.83122432  0.02571722  0.11637586    -0.16400
H2139       H  0.83093544  0.04573472  0.12054934     0.06100
H2140       H  0.83332095  0.45584462  0.09888465     0.06100
C2141       C  0.66529453  0.18580553  0.40196263     0.04100
C2142       C  0.68506252  0.17354268  0.40089616     0.04100
C2143       C  0.68029557  0.15244974  0.38287778    -0.16400
C2144       C  0.65659506  0.14365623  0.36581168     0.04100
C2145       C  0.63866542  0.15779984  0.36577634     0.04100
C2146       C  0.64311166  0.17843032  0.38377705    -0.16400
H2147       H  0.62869065  0.18860454  0.38384695     0.06100
H2148       H  0.69437076  0.14193454  0.38280750     0.06100
C2149       C  0.67087803  0.15249021  0.08594363     0.04100
C2150       C  0.65185883  0.16579336  0.08528348     0.04100
C2151       C  0.62954584  0.15884222  0.10425767    -0.16400
C2152       C  0.62568544  0.13927216  0.12347761     0.04100
C2153       C  0.64431843  0.12600595  0.12390472     0.04100
C2154       C  0.66639512  0.13252472  0.10516942    -0.16400
H2155       H  0.68038759  0.12192106  0.10563805     0.06100
H2156       H  0.61567169  0.16956829  0.10461548     0.06100
C2157       C  0.97071809  0.31497354  0.41065751     0.04100
C2158       C  0.50203740  0.33619089  0.41215219     0.04100
C2159       C  0.51594315  0.35637263  0.39254925    -0.16400
C2160       C  0.49996757  0.35614205  0.37147701     0.04100
C2161       C  0.96900533  0.33470241  0.36943300     0.04100
C2162       C  0.95495091  0.31442441  0.38908310    -0.16400
H2163       H  0.93115576  0.29787701  0.38765290     0.06100
H2164       H  0.54010848  0.37226601  0.39333423     0.06100
C2165       C  0.52684176  0.33055090  0.09383900     0.04100
C2166       C  0.99463865  0.31595199  0.09290401     0.04100
C2167       C  0.97773222  0.32014578  0.11175945    -0.16400
C2168       C  0.99197878  0.34033853  0.13043776     0.04100
C2169       C  0.52429659  0.35630800  0.13072969     0.04100
C2170       C  0.54139817  0.35045455  0.11290478    -0.16400
H2171       H  0.56622590  0.36253872  0.11312487     0.06100
H2172       H  0.95291656  0.30750439  0.11173476     0.06100
C2173       C  0.54245800  0.37907176  0.33954953     0.25400
C2174       C  0.51733581  0.37880722  0.35210551    -0.22700
C2175       C  0.50961577  0.40058708  0.34654814     0.20300
C2176       C  0.52646026  0.42201575  0.32850334     0.25400
C2177       C  0.55093412  0.42173997  0.31550511    -0.22600
C2178       C  0.55881891  0.40010139  0.32110314     0.20300
F2179       F  0.58220431  0.39927855  0.30858970    -0.12600
F2180       F  0.55040390  0.35828018  0.34462807    -0.14900
F2181       F  0.51868474  0.44290142  0.32339669    -0.15000
F2182       F  0.98631511  0.40138468  0.35867285    -0.12600
C2183       C  0.55996342  0.37853718  0.16630302     0.25400
C2184       C  0.54064293  0.38031925  0.14851649    -0.22700
C2185       C  0.53505926  0.40412821  0.14892021     0.20300
C2186       C  0.54712813  0.42487604  0.16752449     0.25400
C2187       C  0.56533282  0.42242901  0.18591359    -0.22600
C2188       C  0.57210257  0.39939324  0.18493890     0.20300
F2189       F  0.58997636  0.39685529  0.20233880    -0.12600
F2190       F  0.56549188  0.35563763  0.16651858    -0.14900
F2191       F  0.04040411  0.44684572  0.16823812    -0.15000
F2192       F  0.01741712  0.40684000  0.13168331    -0.12600
C2193       C  0.66283489  0.09872580  0.31313735     0.25400
C2194       C  0.63398680  0.07326126  0.31478817    -0.22700
C2195       C  0.61394079  0.07029263  0.33461607     0.20300
C2196       C  0.62220005  0.09249099  0.35191113     0.25400
C2197       C  0.64984876  0.11886346  0.34905059    -0.22600
C2198       C  0.67059948  0.12139121  0.33003027     0.20300
F2199       F  0.69820020  0.14596293  0.32764109    -0.12600
F2200       F  0.68336049  0.10173742  0.29497825    -0.14900
F2201       F  0.60335189  0.08799718  0.37176745    -0.15000
F2202       F  0.58603162  0.04607037  0.33701965    -0.12600
C2203       C  0.61272025  0.05822758  0.16416293     0.25400
C2204       C  0.63266925  0.06776873  0.18432742    -0.22700
C2205       C  0.65795254  0.09618989  0.18347497     0.20300
C2206       C  0.66183373  0.11521788  0.16376017     0.25400
C2207       C  0.64143027  0.10564306  0.14407382    -0.22600
C2208       C  0.61782797  0.07666957  0.14386090     0.20300
F2209       F  0.59973581  0.06620125  0.12390652    -0.12600
F2210       F  0.58803740  0.03103901  0.16416134    -0.14900
F2211       F  0.68538519  0.14301436  0.16388705    -0.15000
F2212       F  0.67873040  0.10556245  0.20177968    -0.12600
C2213       C  0.94803281  0.34414879  0.30401679     0.25400
C2214       C  0.92022451  0.34439688  0.30828055    -0.22700
C2215       C  0.90542298  0.33480701  0.33154889     0.20300
C2216       C  0.92084203  0.33096509  0.35136633     0.25400
C2217       C  0.95022068  0.33373714  0.34771785    -0.22600
C2218       C  0.96190191  0.33722937  0.32325506     0.20300
F2219       F  0.48683050  0.33456636  0.31804209    -0.12600
F2220       F  0.96275118  0.35215269  0.28162361    -0.14900
F2221       F  0.90774241  0.32650556  0.37433856    -0.15000
F2222       F  0.87714377  0.33186479  0.33566819    -0.12600
C2223       C  0.96206981  0.35290819  0.19142390     0.25400
C2224       C  0.93808446  0.35773958  0.18380197    -0.22700
C2225       C  0.92998849  0.35399412  0.15874947     0.20300
C2226       C  0.94758969  0.34861499  0.14135698     0.25400
C2227       C  0.97214034  0.34454999  0.14898895    -0.22600
C2228       C  0.97768391  0.34477746  0.17439777     0.20300
F2229       F  0.49821599  0.33728501  0.18275101    -0.12600
F2230       F  0.97099721  0.35676487  0.21530887    -0.14900
F2231       F  0.94114783  0.34829089  0.11700747    -0.15000
F2232       F  0.90583778  0.35682535  0.15095579    -0.12600
C2233       C  0.88849721  0.46632742  0.32395654     0.25400
C2234       C  0.86526331  0.44550725  0.30940190    -0.22700
C2235       C  0.83463417  0.43805505  0.31506395     0.20300
C2236       C  0.82763741  0.45130840  0.33486524     0.25400
C2237       C  0.85086578  0.47060606  0.35051873    -0.22600
C2238       C  0.88110644  0.47647209  0.34541327     0.20300
F2239       F  0.90315280  0.48956293  0.36229125    -0.12600
F2240       F  0.91841387  0.47496433  0.31853149    -0.14900
F2241       F  0.79810366  0.44486792  0.33898754    -0.15000
F2242       F  0.81150770  0.41783651  0.30152268    -0.12600
C2243       C  0.89127185  0.49140860  0.14904615     0.25400
C2244       C  0.86086181  0.47665667  0.14085021    -0.22700
C2245       C  0.84077232  0.44862935  0.15058024     0.20300
C2246       C  0.85000326  0.43665082  0.16950561     0.25400
C2247       C  0.87935286  0.45242400  0.17930835    -0.22600
C2248       C  0.90019610  0.47971920  0.16867610     0.20300
F2249       F  0.92869776  0.49544313  0.17788777    -0.12600
F2250       F  0.91148699  0.51799388  0.13932409    -0.14900
F2251       F  0.82977105  0.40996667  0.17902002    -0.15000
F2252       F  0.81130952  0.43377085  0.14311206    -0.12600
C2253       C  0.86882616  0.05230242  0.34337984     0.25400
C2254       C  0.87947081  0.03748240  0.35862029    -0.22700
C2255       C  0.91099978  0.04704547  0.35858709     0.20300
C2256       C  0.92972833  0.06452697  0.33911213     0.25400
C2257       C  0.91845640  0.07722787  0.32201959    -0.22600
C2258       C  0.88880862  0.07342521  0.32622491     0.20300
F2259       F  0.87885547  0.08917484  0.31302621    -0.12600
F2260       F  0.83934774  0.04678517  0.34557153    -0.14900
F2261       F  0.95855087  0.06830884  0.33666700    -0.15000
F2262       F  0.92376915  0.04005579  0.37758234    -0.12600
C2263       C  0.89914107  0.07988693  0.17183084     0.25400
C2264       C  0.90313892  0.06517623  0.19205342    -0.22700
C2265       C  0.88303642  0.03495604  0.19476840     0.20300
C2266       C  0.86019602  0.02027023  0.17760536     0.25400
C2267       C  0.86172868  0.03345848  0.15451759    -0.22600
C2268       C  0.88069711  0.06401452  0.15224732     0.20300
F2269       F  0.88277335  0.07850616  0.13079174    -0.12600
F2270       F  0.91474743  0.10947547  0.17020107    -0.14900
F2271       F  0.83912782  0.49220318  0.18100496    -0.15000
F2272       F  0.88575881  0.01941497  0.21378752    -0.12600
C2273       C  0.56202402  0.12623205  0.33486335     0.25400
C2274       C  0.56996207  0.14154734  0.31201779    -0.22700
C2275       C  0.60070062  0.16307777  0.30749023     0.20300
C2276       C  0.62322322  0.16761440  0.32463493     0.25400
C2277       C  0.61515480  0.15183591  0.34710676    -0.22600
C2278       C  0.58425714  0.13216165  0.35255287     0.20300
F2279       F  0.57557647  0.11877005  0.37510077    -0.12600
F2280       F  0.53277079  0.10520509  0.34001075    -0.14900
F2281       F  0.65283301  0.18783843  0.31956514    -0.15000
F2282       F  0.60893534  0.17950870  0.28634952    -0.12600
C2283       C  0.59017878  0.14993572  0.18219975     0.25400
C2284       C  0.56209313  0.12369399  0.18386419    -0.22700
C2285       C  0.55500069  0.10290493  0.16519654     0.20300
C2286       C  0.57482033  0.10883904  0.14479002     0.25400
C2287       C  0.60338064  0.13431316  0.14381710    -0.22600
C2288       C  0.61093300  0.15488435  0.16259703     0.20300
F2289       F  0.63826689  0.17991360  0.16171535    -0.12600
F2290       F  0.59727713  0.17093949  0.19935681    -0.14900
F2291       F  0.56572932  0.09009179  0.12564837    -0.15000
F2292       F  0.52842819  0.07714619  0.16640237    -0.12600
C2293       C  0.63362943  0.21273857  0.04217222     0.25400
C2294       C  0.66164984  0.23899299  0.04131567    -0.22700
C2295       C  0.68712854  0.23963273  0.05299955     0.20300
C2296       C  0.68436692  0.21525312  0.06590935     0.25400
C2297       C  0.65626476  0.18932275  0.06731556    -0.22600
C2298       C  0.63098818  0.18819240  0.05500699     0.20300
F2299       F  0.60336020  0.16349227  0.05613131    -0.12600
F2300       F  0.60871801  0.21081210  0.03078205    -0.14900
F2301       F  0.70870428  0.21784919  0.07868847    -0.15000
F2302       F  0.71463108  0.26445764  0.05317991    -0.12600
C2303       C  0.56372169  0.33353863  0.03146135     0.25400
C2304       C  0.58253341  0.32091827  0.03661725    -0.22700
C2305       C  0.58234652  0.31113081  0.06103169     0.20300
C2306       C  0.56428743  0.31430894  0.07967784     0.25400
C2307       C  0.54588913  0.32699995  0.07426931    -0.22600
C2308       C  0.54580174  0.33656668  0.05007261     0.20300
F2309       F  0.52867895  0.34942908  0.04451557    -0.12600
F2310       F  0.56254515  0.34323299  0.00836199    -0.14900
F2311       F  0.56435586  0.30458188  0.10299803    -0.15000
F2312       F  0.59982644  0.29880448  0.06702646    -0.12600
C2313       C  0.78902270  0.42816373  0.03872464     0.25400
C2314       C  0.75730825  0.41701514  0.04175235    -0.22700
C2315       C  0.74610697  0.43156406  0.05680364     0.20300
C2316       C  0.76632424  0.45569092  0.07035344     0.25400
C2317       C  0.79809272  0.46583985  0.06871903    -0.22600
C2318       C  0.80935741  0.45251950  0.05206129     0.20300
F2319       F  0.83994231  0.46225303  0.04963813    -0.12600
F2320       F  0.80016226  0.41486936  0.02345264    -0.14900
F2321       F  0.75464405  0.46746436  0.08672614    -0.15000
F2322       F  0.71545823  0.42126251  0.05957765    -0.12600
C2323       C  0.69100524  0.23361273  0.42455921     0.25400
C2324       C  0.66577563  0.20555842  0.42182661    -0.22700
C2325       C  0.63866211  0.19774566  0.43570305     0.20300
C2326       C  0.63599844  0.21815150  0.45051872     0.25400
C2327       C  0.66051579  0.24663785  0.45210803    -0.22600
C2328       C  0.68847692  0.25394819  0.43987952     0.20300
F2329       F  0.71254132  0.28134619  0.44138313    -0.12600
F2330       F  0.71720414  0.24201625  0.41103285    -0.14900
F2331       F  0.60905251  0.21039520  0.46275018    -0.15000
F2332       F  0.61412083  0.17064614  0.43387059    -0.12600
C2333       C  0.54451828  0.36209805  0.44247189     0.25400
C2334       C  0.52301030  0.33591459  0.43131311    -0.22700
C2335       C  0.52638055  0.31109085  0.43410726     0.20300
C2336       C  0.55120731  0.31255197  0.44669646     0.25400
C2337       C  0.57369377  0.33901899  0.45686412    -0.22600
C2338       C  0.56972796  0.36368522  0.45503009     0.20300
F2339       F  0.59002557  0.38917472  0.46541621    -0.12600
F2340       F  0.54162386  0.38644079  0.44039579    -0.14900
F2341       F  0.55387397  0.28801445  0.44785063    -0.15000
F2342       F  0.50698595  0.28580107  0.42294562    -0.12600
C2343       C  0.73402798  0.42356743  0.43765079     0.25400
C2344       C  0.74123857  0.41972888  0.46205604    -0.22700
C2345       C  0.77237076  0.43614728  0.46903555     0.20300
C2346       C  0.79510063  0.45532176  0.45240304     0.25400
C2347       C  0.78797781  0.45854652  0.42808623    -0.22600
C2348       C  0.75724258  0.44255183  0.42080229     0.20300
F2349       F  0.74965441  0.44579967  0.39744921    -0.12600
F2350       F  0.70466390  0.40900332  0.42999022    -0.14900
F2351       F  0.82449569  0.47033742  0.46000997    -0.15000
F2352       F  0.78142552  0.43365063  0.49205246    -0.12600
C2353       C  0.56975785  0.21979312  0.95322695     0.25400
C2354       C  0.57056540  0.24695273  0.95360468    -0.22700
C2355       C  0.54739324  0.24983215  0.94115806     0.20300
C2356       C  0.52544068  0.22692352  0.92748421     0.25400
C2357       C  0.52561268  0.20036630  0.92613630    -0.22600
C2358       C  0.54751908  0.19676869  0.93961862     0.20300
F2359       F  0.54820897  0.17124577  0.93866015    -0.12600
F2360       F  0.59148077  0.21594661  0.96477251    -0.14900
F2361       F  0.50540225  0.23152223  0.91407462    -0.15000
F2362       F  0.54643262  0.27526097  0.94136633    -0.12600
C2363       C  0.70308258  0.46174202  0.92273980     0.25400
C2364       C  0.68079255  0.47017107  0.92770887    -0.22700
C2365       C  0.66076853  0.45788438  0.94813869     0.20300
C2366       C  0.66142806  0.43591501  0.96233117     0.25400
C2367       C  0.68130432  0.42491450  0.95569184    -0.22600
C2368       C  0.70323412  0.43904955  0.93654484     0.20300
F2369       F  0.72279840  0.42917584  0.92968327    -0.12600
F2370       F  0.72303871  0.47388798  0.90327555    -0.14900
F2371       F  0.64111267  0.42404902  0.98164254    -0.15000
F2372       F  0.63885292  0.46546891  0.95313683    -0.12600
C2373       C  0.79823026  0.34741221  0.56049001     0.25400
C2374       C  0.78947773  0.32453605  0.57768992    -0.22700
C2375       C  0.75971005  0.30054373  0.57711293     0.20300
C2376       C  0.73834669  0.30036216  0.56044428     0.25400
C2377       C  0.74662137  0.32426502  0.54417284    -0.22600
C2378       C  0.77729725  0.34715124  0.54372058     0.20300
F2379       F  0.78699463  0.37013760  0.52768130    -0.12600
F2380       F  0.82696221  0.37067493  0.56052336    -0.14900
F2381       F  0.70927570  0.27769102  0.56126625    -0.15000
F2382       F  0.75076654  0.27828418  0.59379739    -0.12600
C2383       C  0.81042771  0.34808575  0.95529648     0.25400
C2384       C  0.80290554  0.34027334  0.93058488    -0.22700
C2385       C  0.77337016  0.33330052  0.92266459     0.20300
C2386       C  0.75207491  0.33482921  0.93895217     0.25400
C2387       C  0.75974632  0.34306565  0.96359219    -0.22600
C2388       C  0.78903309  0.34930006  0.97167430     0.20300
F2389       F  0.79739462  0.35761060  0.99531232    -0.12600
F2390       F  0.83901316  0.35603338  0.96327790    -0.14900
F2391       F  0.72376842  0.32766821  0.93075211    -0.15000
F2392       F  0.76532408  0.32538616  0.89890572    -0.12600
C2393       C  0.70128392  0.45231168  0.55399174     0.25400
C2394       C  0.67451930  0.43053436  0.54287736    -0.22700
C2395       C  0.64796275  0.43340540  0.54368517     0.20300
C2396       C  0.64773172  0.45643997  0.55663237     0.25400
C2397       C  0.67373376  0.47653134  0.56958738    -0.22600
C2398       C  0.70066757  0.47454127  0.56761483     0.20300
F2399       F  0.72585610  0.49275191  0.58040439    -0.12600
F2400       F  0.72812818  0.45166843  0.55241208    -0.14900
F2401       F  0.62158947  0.45838297  0.55751772    -0.15000
F2402       F  0.62175539  0.41308152  0.53327740    -0.12600
C2403       C  0.56795628  0.23223544  0.57579023     0.25400
C2404       C  0.54576967  0.20445713  0.56768583    -0.22700
C2405       C  0.54389518  0.19881091  0.54223753     0.20300
C2406       C  0.56408592  0.22016329  0.52535921     0.25400
C2407       C  0.58716383  0.24745914  0.53359800    -0.22600
C2408       C  0.58855550  0.25337602  0.55897316     0.20300
F2409       F  0.60961743  0.27974898  0.56751613    -0.12600
F2410       F  0.57009184  0.23873731  0.60021804    -0.14900
F2411       F  0.56185103  0.21355017  0.50095726    -0.15000
F2412       F  0.52376395  0.17207479  0.53374758    -0.12600
C2413       C  0.94040281  0.38141934  0.83119711     0.25400
C2414       C  0.93409404  0.35641953  0.81747667    -0.22700
C2415       C  0.90784316  0.32992324  0.82372089     0.20300
C2416       C  0.88665830  0.32915637  0.84141482     0.25400
C2417       C  0.89221698  0.35452250  0.85417211    -0.22600
C2418       C  0.92000448  0.38024433  0.84976434     0.20300
F2419       F  0.92814198  0.40383556  0.86414472    -0.12600
F2420       F  0.96643409  0.40707826  0.82664660    -0.14900
F2421       F  0.86080172  0.30351300  0.84635906    -0.15000
F2422       F  0.90262425  0.30486702  0.81254004    -0.12600
C2423       C  0.57331520  0.44805098  0.83630875     0.25400
C2424       C  0.58403353  0.44259268  0.81370123    -0.22700
C2425       C  0.61537773  0.45091871  0.81098576     0.20300
C2426       C  0.63549011  0.46485292  0.83026922     0.25400
C2427       C  0.62443789  0.46967401  0.85281775    -0.22600
C2428       C  0.59311352  0.46038378  0.85596449     0.20300
F2429       F  0.58259205  0.96809115  0.87338002    -0.12600
F2430       F  0.54358091  0.44152010  0.83934565    -0.14900
F2431       F  0.66578481  0.47364711  0.82701115    -0.15000
F2432       F  0.62653926  0.44560885  0.78969616    -0.12600
C2433       C  0.62966418  0.46878940  0.66435290     0.25400
C2434       C  0.62201819  0.48261166  0.64570285    -0.22700
C2435       C  0.59316156  0.48102044  0.64626396     0.20300
C2436       C  0.57311889  0.46779812  0.66640270     0.25400
C2437       C  0.58053220  0.45358627  0.68502655    -0.22600
C2438       C  0.60893504  0.45408522  0.68377885     0.20300
F2439       F  0.61626354  0.43978474  0.70108879    -0.12600
F2440       F  0.65690576  0.46888875  0.66326995    -0.14900
F2441       F  0.54589658  0.46774955  0.66725440    -0.15000
F2442       F  0.58394670  0.49125924  0.62696378    -0.12600
C2443       C  0.87553076  0.35192157  0.67891271     0.25400
C2444       C  0.87551902  0.34053335  0.65537547    -0.22700
C2445       C  0.89923133  0.33373798  0.64985993     0.20300
C2446       C  0.92131662  0.33804993  0.66739671     0.25400
C2447       C  0.92406713  0.35440270  0.68861683    -0.22600
C2448       C  0.90135912  0.36232574  0.69351822     0.20300
F2449       F  0.90326057  0.37866450  0.71347447    -0.12600
F2450       F  0.85031971  0.35203884  0.68842691    -0.14900
F2451       F  0.94023663  0.32662297  0.66337355    -0.15000
F2452       F  0.90164520  0.32327278  0.62750986    -0.12600
C2453       C  0.54236964  0.16924942  0.83343167     0.25400
C2454       C  0.52550078  0.14738017  0.85125664    -0.22700
C2455       C  0.52765245  0.12169756  0.85132928     0.20300
C2456       C  0.54427957  0.11685921  0.83266866     0.25400
C2457       C  0.56082618  0.13849324  0.81449253    -0.22600
C2458       C  0.56011026  0.16496548  0.81529744     0.20300
F2459       F  0.57682957  0.18675122  0.79868480    -0.12600
F2460       F  0.54200423  0.19494527  0.83389968    -0.14900
F2461       F  0.54429788  0.09099061  0.83240630    -0.15000
F2462       F  0.51463708  0.10173144  0.86995730    -0.12600
C2463       C  0.62318013  0.03437570  0.85690908     0.25400
C2464       C  0.64890788  0.03037009  0.85499815    -0.22700
C2465       C  0.66963481  0.04275983  0.83499926     0.20300
C2466       C  0.66420173  0.05818901  0.81651703     0.25400
C2467       C  0.63752170  0.06094889  0.81754621    -0.22600
C2468       C  0.61698437  0.04878869  0.83793271     0.20300
F2469       F  0.59086616  0.05074038  0.83941500    -0.12600
F2470       F  0.60431266  0.02465104  0.87722032    -0.14900
F2471       F  0.68508120  0.07051620  0.79764451    -0.15000
F2472       F  0.69548732  0.04033497  0.83370993    -0.12600
C2473       C  0.67668702  0.06545425  0.68856535     0.25400
C2474       C  0.65219487  0.07156116  0.68807407    -0.22700
C2475       C  0.63320311  0.06338696  0.66740893     0.20300
C2476       C  0.63895989  0.04997621  0.64746498     0.25400
C2477       C  0.66153777  0.04156395  0.64892327    -0.22600
C2478       C  0.68083025  0.04982786  0.66934564     0.20300
F2479       F  0.70362280  0.04283677  0.67057118    -0.12600
F2480       F  0.69630310  0.07439239  0.70769797    -0.14900
F2481       F  0.62267852  0.04547063  0.62657672    -0.15000
F2482       F  0.60877208  0.06807715  0.66666920    -0.12600
C2483       C  0.57029366  0.12688366  0.66496429     0.25400
C2484       C  0.58025284  0.14736633  0.68411081    -0.22700
C2485       C  0.57584637  0.17179619  0.68218148     0.20300
C2486       C  0.55999306  0.17465154  0.66223744     0.25400
C2487       C  0.54928490  0.15366347  0.64362099    -0.22600
C2488       C  0.55583586  0.13056750  0.64451405     0.20300
F2489       F  0.54823623  0.11157331  0.62560644    -0.12600
F2490       F  0.57383462  0.10284134  0.66638542    -0.14900
F2491       F  0.55458697  0.19760326  0.66125010    -0.15000
F2492       F  0.58620995  0.19242836  0.69991549    -0.12600
C2493       C  0.94963132  0.12355186  0.82813998     0.25400
C2494       C  0.95728149  0.11600002  0.85088835    -0.22700
C2495       C  0.95157229  0.08733801  0.85477191     0.20300
C2496       C  0.94186500  0.06751003  0.83539457     0.25400
C2497       C  0.93415024  0.07477093  0.81240487    -0.22600
C2498       C  0.93718524  0.10283086  0.80935141     0.20300
F2499       F  0.92847977  0.11031800  0.78808211    -0.12600
F2500       F  0.95457670  0.15106903  0.82404850    -0.14900
F2501       F  0.94087727  0.04143205  0.83897143    -0.15000
F2502       F  0.95632162  0.07878429  0.87725832    -0.12600
C2503       C  0.83773074  0.39741167  0.81429030     0.25400
C2504       C  0.86119747  0.42681769  0.81428986    -0.22700
C2505       C  0.88081183  0.43661480  0.83467447     0.20300
C2506       C  0.87770491  0.41745117  0.85392793     0.25400
C2507       C  0.85657526  0.38768012  0.85247974    -0.22600
C2508       C  0.83604320  0.37785801  0.83286801     0.20300
F2509       F  0.81403595  0.34942776  0.83199885    -0.12600
F2510       F  0.81652982  0.38756419  0.79629370    -0.14900
F2511       F  0.89516297  0.42809482  0.87421680    -0.15000
F2512       F  0.90345504  0.46474771  0.83589157    -0.12600
C2513       C  0.96826904  0.12337007  0.66401347     0.25400
C2514       C  0.98207918  0.11651632  0.64419495    -0.22700
C2515       C  0.97930021  0.08867467  0.64313822     0.20300
C2516       C  0.96491171  0.06859255  0.66252642     0.25400
C2517       C  0.95106215  0.07528117  0.68257166    -0.22600
C2518       C  0.95223732  0.10265700  0.68276825     0.20300
F2519       F  0.93733207  0.10907839  0.70085041    -0.12600
F2520       F  0.96988104  0.14992977  0.66493336    -0.14900
F2521       F  0.96415559  0.04240339  0.66151398    -0.15000
F2522       F  0.98988743  0.08069235  0.62298855    -0.12600
C2523       C  0.83194909  0.40435079  0.68117938     0.25400
C2524       C  0.86249602  0.42630000  0.68347398    -0.22700
C2525       C  0.88524012  0.42647995  0.66762410     0.20300
C2526       C  0.87771671  0.40431040  0.65036501     0.25400
C2527       C  0.84741595  0.38138247  0.64902589    -0.22600
C2528       C  0.82439576  0.38215584  0.66399439     0.20300
F2529       F  0.79495944  0.36023464  0.66321109    -0.12600
F2530       F  0.80962303  0.40399893  0.69613838    -0.14900
F2531       F  0.90016345  0.40448577  0.63570278    -0.15000
F2532       F  0.91493854  0.44745223  0.66965429    -0.12600
C2533       C  0.97244298  0.19021687  0.56672385     0.25400
C2534       C  0.97458045  0.16461649  0.56812321    -0.22700
C2535       C  0.95256927  0.13959774  0.55597525     0.20300
C2536       C  0.92807632  0.13980070  0.54370174     0.25400
C2537       C  0.92539530  0.16526208  0.54287613    -0.22600
C2538       C  0.94832684  0.19062006  0.55423166     0.20300
F2539       F  0.94662674  0.21566836  0.55451553    -0.12600
F2540       F  0.99248655  0.21437615  0.57893659    -0.14900
F2541       F  0.90694658  0.11504473  0.53286612    -0.15000
F2542       F  0.95433683  0.11458496  0.55672979    -0.12600
C2543       C  0.79518440  0.04641187  0.45273710     0.25400
C2544       C  0.82176159  0.06890704  0.46364686    -0.22700
C2545       C  0.84849984  0.06632132  0.46359009     0.20300
C2546       C  0.84969927  0.04400570  0.45040379     0.25400
C2547       C  0.82440542  0.02410167  0.43675692    -0.22600
C2548       C  0.79673068  0.02464704  0.43904300     0.20300
F2549       F  0.77204000  0.00608603  0.42592187    -0.12600
F2550       F  0.76793234  0.04630307  0.45385605    -0.14900
F2551       F  0.87662064  0.04351315  0.44891286    -0.15000
F2552       F  0.87418358  0.08643043  0.47476924    -0.12600
C2553       C  0.74661070  0.06090062  0.58021249     0.25400
C2554       C  0.71672663  0.04129293  0.57242017    -0.22700
C2555       C  0.70968209  0.04175603  0.54750497     0.20300
C2556       C  0.73143380  0.06221230  0.53100107     0.25400
C2557       C  0.76069900  0.08319372  0.53907760    -0.22600
C2558       C  0.76840979  0.08169054  0.56369751     0.20300
F2559       F  0.79642803  0.10109649  0.57208501    -0.12600
F2560       F  0.75433862  0.06048637  0.60411904    -0.14900
F2561       F  0.72355894  0.06163127  0.50699321    -0.15000
F2562       F  0.68111765  0.02358845  0.53934502    -0.12600
C2563       C  0.92967189  0.28331039  0.47274460     0.25400
C2564       C  0.91031020  0.25381719  0.46692103    -0.22700
C2565       C  0.91308985  0.24427658  0.44322260     0.20300
C2566       C  0.93428488  0.26375983  0.42566357     0.25400
C2567       C  0.95270716  0.29354995  0.43102608    -0.22600
C2568       C  0.95034366  0.30303224  0.45489181     0.20300
F2569       F  0.96669939  0.33171077  0.46049537    -0.12600
F2570       F  0.92742322  0.29342399  0.49532674    -0.14900
F2571       F  0.93650342  0.25354538  0.40311926    -0.15000
F2572       F  0.89537369  0.21592366  0.43704658    -0.12600
C2573       C  0.72365742  0.17091992  0.45957069     0.25400
C2574       C  0.75446932  0.18294881  0.45148269    -0.22700
C2575       C  0.76282750  0.19527525  0.42752801     0.20300
C2576       C  0.74032238  0.19365228  0.41141197     0.25400
C2577       C  0.70932244  0.18025912  0.41918836    -0.22600
C2578       C  0.70130397  0.16959939  0.44358895     0.20300
F2579       F  0.67143886  0.15552505  0.45123596    -0.12600
F2580       F  0.71486315  0.15855326  0.48250796    -0.14900
F2581       F  0.74842497  0.20343821  0.38767693    -0.15000
F2582       F  0.79212529  0.20618044  0.41890619    -0.12600
C2583       C  0.83406147  0.27566834  0.54187843     0.25400
C2584       C  0.82541844  0.24727975  0.55015098    -0.22700
C2585       C  0.81148441  0.23790448  0.57371347     0.20300
C2586       C  0.80782797  0.25716515  0.58936482     0.25400
C2587       C  0.81875447  0.28632772  0.58194969    -0.22600
C2588       C  0.83111178  0.29521940  0.55777628     0.20300
F2589       F  0.84304927  0.32349520  0.55038186    -0.12600
F2590       F  0.84809426  0.28526884  0.51936644    -0.14900
F2591       F  0.79541800  0.24790809  0.61241788    -0.15000
F2592       F  0.80296151  0.21049400  0.58206838    -0.12600
C2593       C  0.71325473  0.07338254  0.95888041     0.25400
C2594       C  0.74475147  0.08301719  0.95737711    -0.22700
C2595       C  0.75572997  0.06715175  0.94377645     0.20300
C2596       C  0.73546420  0.04304074  0.93011436     0.25400
C2597       C  0.70410900  0.03468224  0.93013105    -0.22600
C2598       C  0.69302593  0.04929450  0.94542140     0.20300
F2599       F  0.66280662  0.04153560  0.94573735    -0.12600
F2600       F  0.70231952  0.08822441  0.97240303    -0.14900
F2601       F  0.74677716  0.02957400  0.91524472    -0.10200
F2602       F  0.78624134  0.07622199  0.94242978    -0.12600
C2603       C  0.68788523  0.14928587  0.04257018     0.25400
C2604       C  0.69530038  0.15771408  0.06719514    -0.22700
C2605       C  0.72526044  0.16631046  0.07499754     0.20300
C2606       C  0.74710969  0.16575432  0.05874241     0.25400
C2607       C  0.73956235  0.15658979  0.03426148    -0.22600
C2608       C  0.70977372  0.14874309  0.02622938     0.20300
F2609       F  0.70133122  0.13922776  0.00285516    -0.12600
F2610       F  0.65892590  0.13989900  0.03475892    -0.14900
F2611       F  0.77577976  0.17445539  0.06692385    -0.15000
F2612       F  0.73313642  0.17461428  0.09870896    -0.12600
C2613       C  0.91721905  0.18470081  0.93858811     0.25400
C2614       C  0.91799068  0.17660162  0.96335107    -0.22700
C2615       C  0.93865719  0.16632940  0.96927074     0.20300
C2616       C  0.95704984  0.16334842  0.95094137     0.25400
C2617       C  0.95558404  0.17059669  0.92617345    -0.22600
C2618       C  0.93559300  0.18145262  0.92017023     0.20300
F2619       F  0.93388002  0.18895313  0.89640772    -0.12600
F2620       F  0.89804823  0.19494352  0.93201953    -0.14900
F2621       F  0.97561862  0.15232608  0.95733173    -0.15000
F2622       F  0.94117212  0.15895241  0.99291393    -0.12600
C2623       C  0.82568955  0.03507201  0.05295970     0.25400
C2624       C  0.80968739  0.02720934  0.07584397    -0.22700
C2625       C  0.79187776  0.04030076  0.08276593     0.20300
C2626       C  0.79306135  0.06326127  0.06850668     0.25400
C2627       C  0.81211304  0.07336406  0.04721677    -0.22600
C2628       C  0.82688001  0.05793456  0.03879669     0.20300
F2629       F  0.84446996  0.06648751  0.01771200    -0.12600
F2630       F  0.84310975  0.02298803  0.04561832    -0.14900
F2631       F  0.77826853  0.07753698  0.07691338    -0.15000
F2632       F  0.77540460  0.03247845  0.10439813    -0.12600
C2633       C  0.97772440  0.26942682  0.07013909     0.25400
C2634       C  0.97697977  0.29555082  0.07308640    -0.22700
C2635       C  0.95560691  0.30010339  0.05981603     0.20300
C2636       C  0.93347470  0.27784241  0.04563094     0.25400
C2637       C  0.93262132  0.25070540  0.04417242    -0.22600
C2638       C  0.95620157  0.24744028  0.05547755     0.20300
F2639       F  0.95780848  0.22243768  0.05332814    -0.12600
F2640       F  0.99774518  0.26422201  0.08296505    -0.14900
F2641       F  0.91186082  0.28234718  0.03465280    -0.15000
F2642       F  0.95514547  0.32567601  0.06175617    -0.12600
C2643       C  0.81153065  0.25722399  0.94748841     0.25400
C2644       C  0.83762243  0.25904723  0.95914854    -0.22700
C2645       C  0.86495685  0.28588362  0.95815670     0.20300
C2646       C  0.86634446  0.30990115  0.94535649     0.25400
C2647       C  0.84071549  0.30746248  0.93272660    -0.22600
C2648       C  0.81321861  0.28100116  0.93425776     0.20300
F2649       F  0.78862184  0.27733748  0.92122488    -0.12600
F2650       F  0.78459039  0.23179319  0.94751923    -0.14900
F2651       F  0.89328114  0.33532247  0.94420905    -0.15000
F2652       F  0.89048516  0.28882293  0.96918637    -0.12600
O2653       O  0.85004512  0.61987205  0.03028452    -0.79100
O2654       O  0.85971834  0.73105380  0.97670665    -0.63800
O2655       O  0.84587346  0.67077713  0.02399606    -1.10400
C2656       C  0.76905858  0.61222793  0.96744621     1.07800
O2657       O  0.80957935  0.71396506  0.97811909    -0.77000
O2658       O  0.76301415  0.66264728  0.99295387    -0.64500
Ni2659     Ni  0.87638623  0.66139577  0.03300053     1.34900
C2660       C  0.76467151  0.65842346  0.01586237     0.86600
O2661       O  0.88844617  0.73012286  0.01912941    -0.77500
O2662       O  0.90540806  0.70192254  0.03690099    -0.87800
C2663       C  0.83634666  0.73427857  0.97254062     0.86100
O2664       O  0.89155879  0.66172645  0.00058436    -0.66000
O2665       O  0.77586703  0.63563357  0.95529211    -0.85300
C2666       C  0.89728254  0.67872568  0.98212768     0.87000
C2667       C  0.90790435  0.72684170  0.03203185     1.08500
H2668       H  0.83337548  0.66441808  0.96920491     0.40300
O2669       O  0.82387819  0.67002616  0.98223034    -1.07900
O2670       O  0.78508138  0.65302711  0.02438551    -0.64600
Ni2671     Ni  0.81164675  0.64114945  0.00739226     1.26300
O2672       O  0.88620477  0.69611974  0.98033901    -0.64800
O2673       O  0.77790628  0.61176189  0.98937165    -0.77100
C2674       C  0.82185685  0.60391471  0.03623526     0.86300
O2675       O  0.80262700  0.61278693  0.03304787    -0.64300
Ni2676     Ni  0.79318906  0.67484417  0.96676466     1.27400
Ni2677     Ni  0.85571221  0.70111160  0.00001488     1.26100
H2678       H  0.83881013  0.67580517  0.03899077     0.40900
O2679       O  0.90412998  0.68976340  0.52221702    -0.79100
O2680       O  0.80291990  0.69561857  0.47094318    -0.63800
O2681       O  0.84395917  0.67624216  0.52047374    -1.10400
C2682       C  0.82203932  0.59579406  0.47081576     1.07800
O2683       O  0.76512114  0.65014447  0.47296386    -0.77000
O2684       O  0.77010124  0.61265904  0.50288721    -0.64500
Ni2685     Ni  0.87961903  0.70581282  0.53482208     1.34900
C2686       C  0.78254197  0.60574158  0.51988746     0.86600
O2687       O  0.82585349  0.71909540  0.51566820    -0.77500
O2688       O  0.85592718  0.72262346  0.54765060    -0.87800
C2689       C  0.77584977  0.67638473  0.46567000     0.86100
O2690       O  0.89563516  0.73410999  0.50837322    -0.66000
O2691       O  0.79824117  0.59806143  0.46655196    -0.85300
C2692       C  0.88831239  0.73225028  0.48585722     0.87000
C2693       C  0.83663095  0.72823064  0.53715761     1.08500
H2694       H  0.83522086  0.66227290  0.46356911     0.40300
O2695       O  0.82319926  0.65528913  0.47872712    -1.07900
O2696       O  0.81155312  0.61650260  0.52127338    -0.64600
Ni2697     Ni  0.84612913  0.64623184  0.50192733     1.26300
O2698       O  0.86214633  0.71318000  0.47842742    -0.64800
O2699       O  0.84509067  0.61521098  0.48236196    -0.77100
C2700       C  0.89958139  0.66477343  0.52892813     0.86300
O2701       O  0.87368282  0.64234650  0.52479116    -0.64300
Ni2702     Ni  0.78376457  0.62566243  0.47019967     1.27400
Ni2703     Ni  0.82447020  0.68741736  0.49626395     1.26100
H2704       H  0.82927552  0.66706453  0.53397712     0.40900
N2705       N  0.90036368  0.50042297  0.71091282    -0.34800
N2706       N  0.87767213  0.95531242  0.74823937    -0.55300
N2707       N  0.89434174  0.49977860  0.78501399    -0.34800
N2708       N  0.92219848  0.54539260  0.74803458    -0.55300
C2709       C  0.88643384  0.97724807  0.69670757     0.28800
C2710       C  0.90912660  0.52490558  0.69718857     0.28800
C2711       C  0.87915170  0.97621681  0.79780766     0.28800
C2712       C  0.89824451  0.52359939  0.79749351     0.28800
C2713       C  0.87640486  0.93931322  0.72837208     0.37400
C2714       C  0.87641277  0.93946809  0.76849015     0.37400
C2715       C  0.94083217  0.56006980  0.72857135     0.37400
C2716       C  0.93626093  0.55990192  0.76861352     0.37400
C2717       C  0.88203006  0.98655484  0.67384720    -0.20100
C2718       C  0.89487905  0.51759538  0.67448676    -0.20100
C2719       C  0.86798332  0.98396923  0.81841587    -0.20100
C2720       C  0.87789029  0.51486162  0.81761324    -0.20100
C2721       C  0.87367787  0.91293977  0.73594513    -0.21100
C2722       C  0.87456389  0.91330906  0.76137506    -0.21100
C2723       C  0.96716584  0.58395139  0.73678585    -0.21100
C2724       C  0.96429768  0.58379030  0.76223421    -0.21100
C2725       C  0.87658002  0.94797849  0.70357200    -0.16500
C2726       C  0.93286145  0.55283073  0.70359310    -0.16500
C2727       C  0.92257249  0.55226789  0.79264161    -0.16500
C2728       C  0.87467964  0.94795507  0.79303597    -0.16500
H2729       H  0.86916573  0.97308553  0.65864085     0.16400
H2730       H  0.89769148  0.53223271  0.65924866     0.16400
H2731       H  0.85261229  0.96953986  0.83277855     0.16400
H2732       H  0.87574168  0.52867352  0.83140401     0.16400
H2733       H  0.87119070  0.89534249  0.72429090     0.14700
H2734       H  0.87337509  0.89601556  0.77311620     0.14700
H2735       H  0.98628541  0.59983050  0.72562148     0.14700
H2736       H  0.98080075  0.59946013  0.77459371     0.14700
H2737       H  0.91039810  0.49911285  0.72725745     0.28000
H2738       H  0.90893962  0.49946173  0.77112064     0.28000
N2739       N  0.62470258  0.62005118  0.71665962    -0.34800
N2740       N  0.59500807  0.63953167  0.75217600    -0.55300
N2741       N  0.61341947  0.61202726  0.78975764    -0.34800
N2742       N  0.64481524  0.59420068  0.75359604    -0.55300
C2743       C  0.61922415  0.63844618  0.70287644     0.28800
C2744       C  0.64495646  0.61493895  0.70376522     0.28800
C2745       C  0.60426417  0.62790177  0.80358530     0.28800
C2746       C  0.63060231  0.60484266  0.80423357     0.28800
C2747       C  0.58173612  0.64155890  0.73122979     0.37400
C2748       C  0.57634351  0.63808006  0.77116686     0.37400
C2749       C  0.64746036  0.58054659  0.73337084     0.37400
C2750       C  0.64245709  0.57720064  0.77318283     0.37400
C2751       C  0.63713076  0.64609444  0.68132772    -0.20100
C2752       C  0.65349497  0.63124185  0.68191713    -0.20100
C2753       C  0.61635901  0.63145797  0.82701784    -0.20100
C2754       C  0.63310262  0.61693592  0.82740618    -0.20100
C2755       C  0.55477530  0.64194966  0.73694835    -0.21100
C2756       C  0.55145912  0.63992877  0.76231770    -0.21100
C2757       C  0.64716047  0.55489755  0.74011950    -0.21100
C2758       C  0.64416022  0.55286244  0.76547085    -0.21100
C2759       C  0.59421526  0.64340962  0.70718257    -0.16500
C2760       C  0.65055942  0.59162928  0.70907936    -0.16500
C2761       C  0.64007326  0.58428464  0.79792569    -0.16500
C2762       C  0.58216397  0.63578149  0.79634627    -0.16500
H2763       H  0.63677983  0.65934750  0.66604633     0.16400
H2764       H  0.66820917  0.63076691  0.66717637     0.16400
H2765       H  0.61251501  0.64239156  0.84248691     0.16400
H2766       H  0.64460998  0.61441867  0.84325673     0.16400
H2767       H  0.53903103  0.64334803  0.72424632     0.14700
H2768       H  0.53272894  0.63954667  0.77297575     0.14700
H2769       H  0.64877849  0.53924927  0.72812601     0.14700
H2770       H  0.64313691  0.53541177  0.77689475     0.14700
H2771       H  0.61078067  0.60718875  0.73129442     0.28000
H2772       H  0.60435550  0.60264402  0.77288512     0.28000
N2773       N  0.50794538  0.88644312  0.78800766    -0.34800
N2774       N  0.55277371  0.91661148  0.74933209    -0.55300
N2775       N  0.50315698  0.88849871  0.71355699    -0.34800
N2776       N  0.95895122  0.85668889  0.75332666    -0.55300
C2777       C  0.53431991  0.89544699  0.80029124     0.28800
C2778       C  0.98532201  0.86592027  0.80249735     0.28800
C2779       C  0.52675979  0.90577067  0.69792679     0.28800
C2780       C  0.97745861  0.87493712  0.70000165     0.28800
C2781       C  0.56954851  0.93088530  0.76902900     0.37400
C2782       C  0.56702253  0.93342835  0.72923252     0.37400
C2783       C  0.94176922  0.84813805  0.77447865     0.37400
C2784       C  0.93933038  0.84678479  0.73441031     0.37400
C2785       C  0.52832601  0.88001070  0.82249675    -0.20100
C2786       C  0.99726194  0.86160269  0.82402975    -0.20100
C2787       C  0.51613835  0.90195227  0.67398564    -0.20100
C2788       C  0.98541625  0.88327152  0.67531704    -0.20100
C2789       C  0.59470050  0.95688139  0.76143220    -0.21100
C2790       C  0.59323048  0.95841017  0.73618639    -0.21100
C2791       C  0.91107068  0.83174226  0.76900622    -0.21100
C2792       C  0.90972798  0.82946463  0.74380063    -0.21100
C2793       C  0.56256919  0.92009466  0.79362105    -0.16500
C2794       C  0.95387229  0.85458642  0.79847271    -0.16500
C2795       C  0.94698721  0.85579507  0.70914691    -0.16500
C2796       C  0.55696959  0.92682573  0.70461882    -0.16500
H2797       H  0.54451513  0.88276441  0.83667433     0.16400
H2798       H  0.98461788  0.84737550  0.83951621     0.16400
H2799       H  0.52886360  0.91220352  0.65708761     0.16400
H2800       H  0.97081787  0.87763693  0.65951870     0.16400
H2801       H  0.61219086  0.97311203  0.77281729     0.14700
H2802       H  0.60929601  0.97619869  0.72434816     0.14700
H2803       H  0.89138737  0.82208223  0.78144580     0.14700
H2804       H  0.88883324  0.81761496  0.73365548     0.14700
H2805       H  0.50470156  0.89714165  0.77303947     0.28000
H2806       H  0.50462185  0.88668825  0.73242665     0.28000
C2807       C  0.99457509  0.65900381  0.58501134     0.04100
C2808       C  0.52698684  0.67786710  0.58567211     0.04100
C2809       C  0.54353058  0.67374913  0.60469499    -0.16400
C2810       C  0.52889413  0.65307390  0.62364045     0.04100
C2811       C  0.99685872  0.63506354  0.62335858     0.04100
C2812       C  0.98021332  0.63791449  0.60403330    -0.16400
H2813       H  0.95549303  0.62423751  0.60439397     0.06100
H2814       H  0.56826395  0.68710585  0.60502532     0.06100
C2815       C  0.69249349  0.52628148  0.59033908     0.04100
C2816       C  0.67159168  0.99324287  0.58904282     0.04100
C2817       C  0.64894009  0.97894551  0.60756483    -0.16400
C2818       C  0.64546178  0.99403936  0.62741029     0.04100
C2819       C  0.66540460  0.52856772  0.62758203     0.04100
C2820       C  0.68897728  0.54208662  0.60986804    -0.16400
H2821       H  0.70451076  0.56532253  0.61116013     0.06100
H2822       H  0.63425233  0.95549049  0.60693796     0.06100
C2823       C  0.83125981  0.84772246  0.91478714     0.04100
C2824       C  0.84946348  0.83394219  0.91754143     0.04100
C2825       C  0.87163984  0.83850074  0.89923521    -0.16400
C2826       C  0.87593375  0.85590504  0.87826797     0.04100
C2827       C  0.85881317  0.87071225  0.87606345     0.04100
C2828       C  0.83687381  0.86656102  0.89440638    -0.16400
H2829       H  0.82362918  0.87780876  0.89256876     0.06100
H2830       H  0.88460951  0.82691961  0.90056905     0.06100
C2831       C  0.81083031  0.82561397  0.59949016     0.04100
C2832       C  0.82234788  0.80605849  0.60215924     0.04100
C2833       C  0.84115317  0.80914134  0.62216330    -0.16400
C2834       C  0.85158496  0.83298124  0.63819813     0.04100
C2835       C  0.84073485  0.85339174  0.63479568     0.04100
C2836       C  0.81992271  0.84879357  0.61596381    -0.16400
H2837       H  0.81125033  0.86400037  0.61365403     0.06100
H2838       H  0.84862249  0.79309717  0.62463584     0.06100
C2839       C  0.67610173  0.98645841  0.90734546     0.04100
C2840       C  0.68840961  0.51775121  0.90910386     0.04100
C2841       C  0.68112475  0.53229434  0.89090714    -0.16400
C2842       C  0.66019159  0.51701259  0.87264147     0.04100
C2843       C  0.64563822  0.98415142  0.87164628     0.04100
C2844       C  0.65647402  0.97073694  0.88810242    -0.16400
H2845       H  0.64913436  0.94772131  0.88616527     0.06100
H2846       H  0.69203240  0.55593210  0.89089818     0.06100
C2847       C  0.50674586  0.67940501  0.90728306     0.04100
C2848       C  0.97431071  0.66576710  0.90662613     0.04100
C2849       C  0.95887870  0.64488647  0.88825838    -0.16400
C2850       C  0.97515364  0.63791754  0.87044343     0.04100
C2851       C  0.50747676  0.65248625  0.87077663     0.04100
C2852       C  0.52272546  0.67277693  0.88915046    -0.16400
H2853       H  0.54758796  0.68386979  0.88915076     0.06100
H2854       H  0.93404806  0.63368639  0.88804103     0.06100
O2855       O  0.73196812  0.85073178  0.52119705    -0.79100
O2856       O  0.62648158  0.85935970  0.47389282    -0.63800
O2857       O  0.67456449  0.84423428  0.52039827    -1.10400
C2858       C  0.65676328  0.76795482  0.46413094     1.07800
O2859       O  0.59497937  0.81269586  0.48009452    -0.77000
O2860       O  0.60026837  0.76718848  0.49445600    -0.64500
Ni2861     Ni  0.71268198  0.87262904  0.53166100     1.34900
C2862       C  0.60999917  0.76716376  0.51585305     0.86600
O2863       O  0.65675643  0.88752464  0.51597071    -0.77500
O2864       O  0.69524760  0.89613308  0.54181982    -0.87800
C2865       C  0.60000516  0.83703251  0.47127465     0.86100
O2866       O  0.72825061  0.89523735  0.50231346    -0.66000
O2867       O  0.63619145  0.77277567  0.45485790    -0.85300
C2868       C  0.71784002  0.89730270  0.48168922     0.87000
C2869       C  0.67526212  0.90209969  0.53320692     1.08500
H2870       H  0.66676004  0.83064463  0.46507909     0.40300
O2871       O  0.65308400  0.82271748  0.47931307    -1.07900
O2872       O  0.63724608  0.78521507  0.52208780    -0.64600
Ni2873     Ni  0.67365987  0.81212048  0.50290415     1.26300
O2874       O  0.68933791  0.88207144  0.47675598    -0.64800
O2875       O  0.67196422  0.78055577  0.48339295    -0.77100
C2876       C  0.72440402  0.82596798  0.53055768     0.86300
O2877       O  0.69747342  0.80522701  0.52712344    -0.64300
Ni2878     Ni  0.61595419  0.79339317  0.46706842     1.27400
Ni2879     Ni  0.65344850  0.85475142  0.49694665     1.26100
H2880       H  0.66130023  0.83664525  0.53494671     0.40900
O2881       O  0.69130706  0.78579585  0.02026096    -0.79100
O2882       O  0.69885529  0.88931078  0.96698274    -0.63800
O2883       O  0.67926692  0.83109885  0.01680611    -1.10400
C2884       C  0.59576279  0.77481908  0.96470318     1.07800
O2885       O  0.65123473  0.88108962  0.97099342    -0.77000
O2886       O  0.60750781  0.83666723  0.99657549    -0.64500
Ni2887     Ni  0.71005321  0.82527776  0.03114578     1.34900
C2888       C  0.60448093  0.82227688  0.01627778     0.86600
O2889       O  0.72422531  0.88971802  0.01036582    -0.77500
O2890       O  0.73048019  0.86494409  0.04200006    -0.87800
C2891       C  0.67891473  0.89733794  0.96399699     0.86100
O2892       O  0.73817822  0.83582484  0.00394580    -0.66000
O2893       O  0.59913291  0.79973909  0.95846180    -0.85300
C2894       C  0.73761468  0.84327322  0.98173823     0.87000
C2895       C  0.73615122  0.88860984  0.03076262     1.08500
H2896       H  0.66425447  0.82582106  0.96044870     0.40300
O2897       O  0.65679014  0.83080753  0.97525343    -1.07900
O2898       O  0.61741493  0.80661111  0.01904748    -0.64600
Ni2899     Ni  0.64660541  0.80032458  0.99911962     1.26300
O2900       O  0.71811277  0.85040991  0.97412711    -0.64800
O2901       O  0.61329356  0.77152562  0.98000683    -0.77100
C2902       C  0.66459029  0.76646604  0.02710017     0.86300
O2903       O  0.64164220  0.77023674  0.02271116    -0.64300
Ni2904     Ni  0.62638371  0.83998261  0.96517746     1.27400
Ni2905     Ni  0.69073883  0.86050787  0.99210674     1.26100
H2906       H  0.67032912  0.83655828  0.03036783     0.40900
N2907       N  0.98503605  0.60016670  0.21301432    -0.34800
N2908       N  0.94203841  0.59052756  0.25326133    -0.55300
N2909       N  0.99336797  0.61198214  0.28670761    -0.34800
N2910       N  0.53637992  0.62431896  0.24695904    -0.55300
C2911       C  0.95977755  0.59448607  0.19999379     0.28800
C2912       C  0.50951142  0.61232293  0.19701934     0.28800
C2913       C  0.97047664  0.61063461  0.30122933     0.28800
C2914       C  0.51982353  0.63016361  0.29766444     0.28800
C2915       C  0.92178145  0.57651570  0.23523273     0.37400
C2916       C  0.92684549  0.57957136  0.27510274     0.37400
C2917       C  0.54997095  0.62004201  0.22685378     0.37400
C2918       C  0.55439997  0.62720314  0.26628660     0.37400
C2919       C  0.96862268  0.60258204  0.17537683    -0.20100
C2920       C  0.49981939  0.61446205  0.17366088    -0.20100
C2921       C  0.98257801  0.62851042  0.32144150    -0.20100
C2922       C  0.51376200  0.64110012  0.31907623    -0.20100
C2923       C  0.89318851  0.55811587  0.24582467    -0.21100
C2924       C  0.89687168  0.55855595  0.27077174    -0.21100
C2925       C  0.57679051  0.62027156  0.23339034    -0.21100
C2926       C  0.57960189  0.62479035  0.25843479    -0.21100
C2927       C  0.92896138  0.57972925  0.20943699    -0.16500
C2928       C  0.53979621  0.61855037  0.20243845    -0.16500
C2929       C  0.54860620  0.63318173  0.29062476    -0.16500
C2930       C  0.93939625  0.58973230  0.29869825    -0.16500
H2931       H  0.95459672  0.59972190  0.15960320     0.16400
H2932       H  0.51358812  0.62264330  0.15682759     0.16400
H2933       H  0.96997858  0.63108457  0.33684089     0.16400
H2934       H  0.53016697  0.65526813  0.33232809     0.16400
H2935       H  0.87166419  0.54497012  0.23690011     0.14700
H2936       H  0.87891943  0.54480897  0.28381797     0.14700
H2937       H  0.59281913  0.61789422  0.22124056     0.14700
H2938       H  0.59816347  0.62642097  0.26949153     0.14700
H2939       H  0.98512466  0.59280695  0.23087353     0.28000
H2940       H  0.99053836  0.59735439  0.27274384     0.28000
N2941       N  0.88990737  0.89322232  0.28466908    -0.34800
N2942       N  0.91223524  0.86832993  0.24703015    -0.55300
N2943       N  0.90303141  0.90200010  0.20932514    -0.34800
N2944       N  0.88221368  0.92839865  0.24677478    -0.55300
C2945       C  0.90390396  0.88158886  0.29849334     0.28800
C2946       C  0.88682880  0.91298952  0.29880575     0.28800
C2947       C  0.92175422  0.89392964  0.19748247     0.28800
C2948       C  0.90504403  0.92524860  0.19684858     0.28800
C2949       C  0.90763326  0.85015948  0.26634249     0.37400
C2950       C  0.91362164  0.85443993  0.22651196     0.37400
C2951       C  0.86916286  0.93488892  0.26616764     0.37400
C2952       C  0.87515850  0.93837578  0.22609493     0.37400
C2953       C  0.90983688  0.89422194  0.32160469    -0.20100
C2954       C  0.89810530  0.91301343  0.32213471    -0.20100
C2955       C  0.93648902  0.91287571  0.17764063    -0.20100
C2956       C  0.92528303  0.93215665  0.17685060    -0.20100
C2957       C  0.90538007  0.82425972  0.25809704    -0.21100
C2958       C  0.90887708  0.82685530  0.23273292    -0.21100
C2959       C  0.85426728  0.94961283  0.25771370    -0.21100
C2960       C  0.85769652  0.95143076  0.23234860    -0.21100
C2961       C  0.90964892  0.85860280  0.29124212    -0.16500
C2962       C  0.87325285  0.93022269  0.29140628    -0.16500
C2963       C  0.88691253  0.93845603  0.20202214    -0.16500
C2964       C  0.92344270  0.86835817  0.20309057    -0.16500
H2965       H  0.92104146  0.89019242  0.33687542     0.16400
H2966       H  0.89815979  0.92511797  0.33822511     0.16400
H2967       H  0.95301534  0.91249358  0.16463687     0.16400
H2968       H  0.93142322  0.94922295  0.16306106     0.16400
H2969       H  0.90248610  0.80587169  0.26927337     0.14700
H2970       H  0.90925837  0.81084464  0.22040874     0.14700
H2971       H  0.84270689  0.95875627  0.26858435     0.14700
H2972       H  0.84925736  0.96210320  0.22003135     0.14700
H2973       H  0.88037403  0.88609121  0.26741609     0.28000
H2974       H  0.88674768  0.89006958  0.22310739     0.28000
C2975       C  0.83101565  0.50855092  0.41466465     0.04100
C2976       C  0.81218881  0.97830053  0.41155183     0.04100
C2977       C  0.81970049  0.96684168  0.39052995    -0.16400
C2978       C  0.84305352  0.98501025  0.37325307     0.04100
C2979       C  0.86000792  0.51457191  0.37636435     0.04100
C2980       C  0.85392092  0.52606577  0.39746153    -0.16400
H2981       H  0.86642629  0.54951729  0.39992813     0.06100
H2982       H  0.80757993  0.94347565  0.38785449     0.06100
N2983       N  0.59577404  0.99716354  0.28926016    -0.34800
N2984       N  0.57594941  0.95102948  0.25266141    -0.55300
N2985       N  0.60162266  0.99531253  0.21479052    -0.34800
N2986       N  0.62371822  0.54193834  0.25008432    -0.55300
C2987       C  0.58735212  0.97324097  0.30371735     0.28800
C2988       C  0.61420273  0.52020711  0.30169415     0.28800
C2989       C  0.59753817  0.97164439  0.20201905     0.28800
C2990       C  0.62187891  0.52060564  0.20013976     0.28800
C2991       C  0.55957010  0.93508881  0.27258893     0.37400
C2992       C  0.56421424  0.93400642  0.23269591     0.37400
C2993       C  0.62370707  0.55772492  0.26975971     0.37400
C2994       C  0.62509560  0.55754339  0.22962238     0.37400
C2995       C  0.60066732  0.98161521  0.32665043    -0.20100
C2996       C  0.61861229  0.51083614  0.32456093    -0.20100
C2997       C  0.61516534  0.98043246  0.18035218    -0.20100
C2998       C  0.63145672  0.51241588  0.17883101    -0.20100
C2999       C  0.53758312  0.90758176  0.26531053    -0.21100
C3000       C  0.54056170  0.90689486  0.23997820    -0.21100
C3001       C  0.62516792  0.58350841  0.26179522    -0.21100
C3002       C  0.62581659  0.58329689  0.23636266    -0.21100
C3003       C  0.56589255  0.94439065  0.29733915    -0.16500
C3004       C  0.62411385  0.54965690  0.29472871    -0.16500
C3005       C  0.62738703  0.54913509  0.20515935    -0.16500
C3006       C  0.57573149  0.94257748  0.20821744    -0.16500
H3007       H  0.59790888  0.96757454  0.34235141     0.16400
H3008       H  0.63170781  0.52425769  0.33970072     0.16400
H3009       H  0.61623635  0.96663287  0.16599557     0.16400
H3010       H  0.64661388  0.52661844  0.16425900     0.16400
H3011       H  0.52150984  0.88973711  0.27707689     0.14700
H3012       H  0.52716821  0.88851557  0.22832070     0.14700
H3013       H  0.62581132  0.60068235  0.27314415     0.14700
H3014       H  0.62717183  0.60037427  0.22430169     0.14700
H3015       H  0.58606167  0.99741980  0.27245489     0.28000
H3016       H  0.58812451  0.99535484  0.22968126     0.28000
C3017       C  0.81852287  0.51242565  0.09326208     0.04100
C3018       C  0.81705151  0.98458526  0.08926581     0.04100
C3019       C  0.83178497  0.97432751  0.10503164    -0.16400
C3020       C  0.84632560  0.98926113  0.12643161     0.04100
C3021       C  0.84684862  0.51673441  0.13117504     0.04100
C3022       C  0.83186714  0.52680187  0.11524957    -0.16400
H3023       H  0.83095860  0.54645396  0.11968833     0.06100
H3024       H  0.83100190  0.95374329  0.10104198     0.06100
C3025       C  0.66705833  0.68606924  0.40057066     0.04100
C3026       C  0.68664502  0.67362775  0.39969810     0.04100
C3027       C  0.68174707  0.65234022  0.38185628    -0.16400
C3028       C  0.65804213  0.64351265  0.36481744     0.04100
C3029       C  0.64025932  0.65778709  0.36453048     0.04100
C3030       C  0.64490588  0.67870402  0.38232573    -0.16400
H3031       H  0.63057493  0.68896810  0.38228561     0.06100
H3032       H  0.69570251  0.64170295  0.38190312     0.06100
C3033       C  0.67278970  0.65480990  0.08490076     0.04100
C3034       C  0.65330766  0.66760274  0.08418465     0.04100
C3035       C  0.63092414  0.66036363  0.10309995    -0.16400
C3036       C  0.62733096  0.64095387  0.12233215     0.04100
C3037       C  0.64644979  0.62821008  0.12301201     0.04100
C3038       C  0.66870921  0.63505694  0.10428667    -0.16400
H3039       H  0.68306083  0.62483711  0.10483248     0.06100
H3040       H  0.61667337  0.67070363  0.10338139     0.06100
C3041       C  0.97177875  0.81435572  0.41187282     0.04100
C3042       C  0.50307457  0.83609278  0.41354454     0.04100
C3043       C  0.51658064  0.85702765  0.39446902    -0.16400
C3044       C  0.50043791  0.85691466  0.37352499     0.04100
C3045       C  0.96945520  0.83471381  0.37115452     0.04100
C3046       C  0.95576438  0.81391986  0.39046900    -0.16400
H3047       H  0.93211258  0.79708188  0.38890423     0.06100
H3048       H  0.54058857  0.87330998  0.39548174     0.06100
C3049       C  0.52774491  0.83213392  0.09371686     0.04100
C3050       C  0.99538481  0.81763600  0.09220697     0.04100
C3051       C  0.97787364  0.82143505  0.11083676    -0.16400
C3052       C  0.99157981  0.84084517  0.13015128     0.04100
C3053       C  0.52420337  0.85693331  0.13091895     0.04100
C3054       C  0.54177542  0.85158776  0.11315788    -0.16400
H3055       H  0.56657881  0.86367059  0.11378382     0.06100
H3056       H  0.95307700  0.80893195  0.11026520     0.06100
C3057       C  0.54280080  0.88079747  0.34183092     0.25400
C3058       C  0.51745596  0.87994891  0.35444688    -0.22700
C3059       C  0.50897828  0.90123633  0.34899370     0.20300
C3060       C  0.52523943  0.92266578  0.33078924     0.25400
C3061       C  0.54977932  0.92272099  0.31757062    -0.22600
C3062       C  0.55845044  0.90168078  0.32320592     0.20300
F3063       F  0.58189853  0.90125831  0.31044881    -0.12600
F3064       F  0.55164332  0.86066298  0.34699341    -0.14900
F3065       F  0.51681349  0.94311732  0.32574945    -0.15000
F3066       F  0.98490537  0.90113195  0.36133921    -0.12600
C3067       C  0.55931964  0.87818310  0.16694467     0.25400
C3068       C  0.54002947  0.88031271  0.14933686    -0.22700
C3069       C  0.53403699  0.90384629  0.15046052     0.20300
C3070       C  0.54560742  0.92389071  0.16962077     0.25400
C3071       C  0.56371281  0.92102395  0.18788699    -0.22600
C3072       C  0.57095640  0.89833263  0.18615871     0.20300
F3073       F  0.58924362  0.89572092  0.20310664    -0.12600
F3074       F  0.56564468  0.85579220  0.16619431    -0.14900
F3075       F  0.03838978  0.94571794  0.17077002    -0.15000
F3076       F  0.01621032  0.90690116  0.13330541    -0.12600
C3077       C  0.66242440  0.59903999  0.31111765     0.25400
C3078       C  0.63442544  0.57278323  0.31410226    -0.22700
C3079       C  0.61585134  0.56929249  0.33517877     0.20300
C3080       C  0.62487118  0.59154282  0.35251388     0.25400
C3081       C  0.65123550  0.61864721  0.34821026    -0.22600
C3082       C  0.67042711  0.62194895  0.32774953     0.20300
F3083       F  0.69669907  0.64749807  0.32370692    -0.12600
F3084       F  0.68172575  0.60272476  0.29173547    -0.14900
F3085       F  0.60796752  0.58649653  0.37370570    -0.15000
F3086       F  0.58856218  0.54460275  0.33875407    -0.12600
C3087       C  0.61444286  0.56015853  0.16305724     0.25400
C3088       C  0.63358555  0.56965676  0.18372834    -0.22700
C3089       C  0.65845375  0.59834272  0.18342635     0.20300
C3090       C  0.66272356  0.61750818  0.16367228     0.25400
C3091       C  0.64343550  0.60776762  0.14325110    -0.22600
C3092       C  0.62023403  0.57863446  0.14263511     0.20300
F3093       F  0.60305118  0.56806970  0.12221137    -0.12600
F3094       F  0.58985533  0.53293063  0.16266096    -0.14900
F3095       F  0.68551758  0.64560973  0.16452054    -0.15000
F3096       F  0.67848562  0.60784880  0.20226986    -0.12600
C3097       C  0.94884185  0.84469563  0.30573226     0.25400
C3098       C  0.92112260  0.84512791  0.30998658    -0.22700
C3099       C  0.90614853  0.83527091  0.33318149     0.20300
C3100       C  0.92117270  0.83062765  0.35290772     0.25400
C3101       C  0.95069171  0.83371490  0.34937851    -0.22600
C3102       C  0.96263968  0.83766010  0.32497158     0.20300
F3103       F  0.48811110  0.83560310  0.31969406    -0.12600
F3104       F  0.96346883  0.85248912  0.28330196    -0.14900
F3105       F  0.90743874  0.82482636  0.37569590    -0.15000
F3106       F  0.87791833  0.83244630  0.33728032    -0.12600
C3107       C  0.96137146  0.85133827  0.19183369     0.25400
C3108       C  0.93802885  0.85739249  0.18465675    -0.22700
C3109       C  0.93006682  0.85457274  0.15952615     0.20300
C3110       C  0.94733800  0.84917894  0.14176722     0.25400
C3111       C  0.97139087  0.84418320  0.14899971    -0.22600
C3112       C  0.97656315  0.84320085  0.17436201     0.20300
F3113       F  0.49693674  0.83508964  0.18217965    -0.12600
F3114       F  0.97032186  0.85420703  0.21568130    -0.14900
F3115       F  0.94121623  0.84993684  0.11746626    -0.15000
F3116       F  0.90643355  0.85839296  0.15198714    -0.12600
C3117       C  0.88839577  0.96696182  0.32538884     0.25400
C3118       C  0.86526257  0.94580571  0.31096650    -0.22700
C3119       C  0.83458322  0.93820412  0.31659997     0.20300
C3120       C  0.82743865  0.95173365  0.33610559     0.25400
C3121       C  0.85059296  0.97161776  0.35151568    -0.22600
C3122       C  0.88086797  0.97745749  0.34660041     0.20300
F3123       F  0.90269510  0.99040634  0.36364141    -0.12600
F3124       F  0.91835382  0.97567489  0.32008500    -0.14900
F3125       F  0.79776509  0.94476470  0.34033552    -0.15000
F3126       F  0.81151475  0.91747634  0.30336075    -0.12600
C3127       C  0.88941440  0.99002875  0.15099851     0.25400
C3128       C  0.85896007  0.97506052  0.14294661    -0.22700
C3129       C  0.83916321  0.94690986  0.15262082     0.20300
C3130       C  0.84878452  0.93504342  0.17136407     0.25400
C3131       C  0.87821167  0.95107254  0.18097732    -0.22600
C3132       C  0.89870471  0.97846694  0.17041813     0.20300
F3133       F  0.92731321  0.99431298  0.17939792    -0.12600
F3134       F  0.90943310  0.01662250  0.14119312    -0.14900
F3135       F  0.82895324  0.90817699  0.18080117    -0.15000
F3136       F  0.80980069  0.93158655  0.14500140    -0.12600
C3137       C  0.87014961  0.54919881  0.34128050     0.25400
C3138       C  0.88115114  0.53599015  0.35788327    -0.22700
C3139       C  0.91280457  0.54651287  0.35895351     0.20300
C3140       C  0.93202005  0.56416530  0.33979167     0.25400
C3141       C  0.92062871  0.57557211  0.32160679    -0.22600
C3142       C  0.89032651  0.57051249  0.32444392     0.20300
F3143       F  0.87976200  0.58460056  0.30972624    -0.12600
F3144       F  0.83998434  0.54161594  0.34158543    -0.14900
F3145       F  0.96132443  0.56904539  0.33858742    -0.15000
F3146       F  0.92502006  0.53937066  0.37827109    -0.12600
C3147       C  0.89858914  0.58006281  0.17231706     0.25400
C3148       C  0.90340081  0.56467643  0.19159643    -0.22700
C3149       C  0.88419676  0.53426013  0.19316748     0.20300
C3150       C  0.86100586  0.52013907  0.17621001     0.25400
C3151       C  0.86201556  0.53412116  0.15368614    -0.22600
C3152       C  0.88006593  0.56486942  0.15249026     0.20300
F3153       F  0.88122733  0.58027076  0.13185607    -0.12600
F3154       F  0.91376446  0.60968832  0.17161364    -0.14900
F3155       F  0.83798745  0.99257949  0.18289831    -0.15000
F3156       F  0.88847333  0.51793146  0.21058833    -0.12600
C3157       C  0.56476379  0.62312550  0.33159634     0.25400
C3158       C  0.57220107  0.64042100  0.30988422    -0.22700
C3159       C  0.60205273  0.66413589  0.30671095     0.20300
C3160       C  0.62439594  0.66930337  0.32425222     0.25400
C3161       C  0.61686435  0.65167599  0.34568448    -0.22600
C3162       C  0.58658649  0.62942872  0.34971616     0.20300
F3163       F  0.57794081  0.61415324  0.37141496    -0.12600
F3164       F  0.53626873  0.60001311  0.33525741    -0.14900
F3165       F  0.65327018  0.69180751  0.32059378    -0.15000
F3166       F  0.60947137  0.68230636  0.28672043    -0.12600
C3167       C  0.59025316  0.65069170  0.18040768     0.25400
C3168       C  0.56217364  0.62440866  0.18156428    -0.22700
C3169       C  0.55539221  0.60404867  0.16257066     0.20300
C3170       C  0.57598362  0.61008548  0.14270273     0.25400
C3171       C  0.60454491  0.63556101  0.14232491    -0.22600
C3172       C  0.61142829  0.65600736  0.16110484     0.20300
F3173       F  0.63859011  0.68121818  0.16057797    -0.12600
F3174       F  0.59713427  0.67121549  0.19798999    -0.14900
F3175       F  0.56777168  0.59134357  0.12357351    -0.15000
F3176       F  0.52862457  0.57845459  0.16310278    -0.12600
C3177       C  0.63359052  0.71358705  0.04128038     0.25400
C3178       C  0.66151459  0.73986714  0.03990013    -0.22700
C3179       C  0.68739061  0.74089699  0.05117347     0.20300
C3180       C  0.68511343  0.71686482  0.06427206     0.25400
C3181       C  0.65714444  0.69083752  0.06613645    -0.22600
C3182       C  0.63147328  0.68930618  0.05416443     0.20300
F3183       F  0.60398275  0.66447728  0.05567011    -0.12600
F3184       F  0.60830334  0.71137806  0.03033885    -0.14900
F3185       F  0.70983943  0.71993331  0.07673925    -0.15000
F3186       F  0.71486565  0.76578719  0.05073993    -0.12600
C3187       C  0.56706100  0.83823868  0.03183494     0.25400
C3188       C  0.58472664  0.82428532  0.03648993    -0.22700
C3189       C  0.58333426  0.81296049  0.06052397     0.20300
C3190       C  0.56479886  0.81545619  0.07917473     0.25400
C3191       C  0.54730094  0.82920972  0.07419050    -0.22600
C3192       C  0.54869519  0.84061358  0.05045246     0.20300
F3193       F  0.53242228  0.85446504  0.04534637    -0.12600
F3194       F  0.56729167  0.84970733  0.00918679    -0.14900
F3195       F  0.56342022  0.80392374  0.10202044    -0.15000
F3196       F  0.60007397  0.79974549  0.06613834    -0.12600
C3197       C  0.78901476  0.92812306  0.03905433     0.25400
C3198       C  0.75720801  0.91618242  0.04234030    -0.22700
C3199       C  0.74551066  0.92946424  0.05836866     0.20300
C3200       C  0.76536316  0.95350145  0.07215320     0.25400
C3201       C  0.79722513  0.96452777  0.07010888    -0.22600
C3202       C  0.80897373  0.95210732  0.05296732     0.20300
F3203       F  0.83965491  0.96230023  0.05065136    -0.12600
F3204       F  0.80061722  0.91579659  0.02316037    -0.14900
F3205       F  0.75335291  0.96432536  0.08914651    -0.15000
F3206       F  0.71476793  0.91801993  0.06176186    -0.12600
C3207       C  0.69283758  0.73334372  0.42406638     0.25400
C3208       C  0.66740956  0.70556345  0.42060710    -0.22700
C3209       C  0.64019307  0.69750391  0.43437543     0.20300
C3210       C  0.63748062  0.71756000  0.44957069     0.25400
C3211       C  0.66216857  0.74582495  0.45187915    -0.22600
C3212       C  0.69030038  0.75328773  0.43988371     0.20300
F3213       F  0.71449245  0.78051877  0.44202928    -0.12600
F3214       F  0.71930903  0.74186605  0.41089801    -0.14900
F3215       F  0.61027754  0.70974833  0.46138894    -0.15000
F3216       F  0.61566114  0.67046683  0.43217968    -0.12600
C3217       C  0.54519486  0.86093858  0.44446803     0.25400
C3218       C  0.52420005  0.83531303  0.43232198    -0.22700
C3219       C  0.52783814  0.81054428  0.43412419     0.20300
C3220       C  0.55235887  0.81151011  0.44682448     0.25400
C3221       C  0.57431856  0.83743972  0.45802237    -0.22600
C3222       C  0.57011844  0.86203017  0.45713772     0.20300
F3223       F  0.58988547  0.88693497  0.46859612    -0.12600
F3224       F  0.54199557  0.88517697  0.44341233    -0.14900
F3225       F  0.55532643  0.78711397  0.44704844    -0.15000
F3226       F  0.50901357  0.78587747  0.42191410    -0.12600
C3227       C  0.73418644  0.92045894  0.43838322     0.25400
C3228       C  0.74106905  0.91867751  0.46332398    -0.22700
C3229       C  0.77154073  0.93741134  0.47085370     0.20300
C3230       C  0.79414925  0.95657413  0.45411432     0.25400
C3231       C  0.78742153  0.95800681  0.42927062    -0.22600
C3232       C  0.75717207  0.93975216  0.42152842     0.20300
F3233       F  0.74977569  0.94089117  0.39765229    -0.12600
F3234       F  0.70539836  0.90336485  0.43016569    -0.14900
F3235       F  0.82309484  0.97331177  0.46219751    -0.15000
F3236       F  0.78001228  0.93732045  0.49458578    -0.12600
C3237       C  0.56867824  0.72137636  0.95357988     0.25400
C3238       C  0.57025488  0.74891090  0.95283756    -0.22700
C3239       C  0.54789098  0.75195234  0.93925814     0.20300
C3240       C  0.52595282  0.72874753  0.92575881     0.25400
C3241       C  0.52553946  0.70188006  0.92553033    -0.22600
C3242       C  0.54665665  0.69820629  0.93998790     0.20300
F3243       F  0.54666684  0.67233605  0.94016126    -0.12600
F3244       F  0.58928637  0.71710622  0.96646980    -0.14900
F3245       F  0.50637766  0.73318686  0.91157443    -0.15000
F3246       F  0.54763087  0.77769674  0.93826467    -0.12600
C3247       C  0.70041892  0.95548275  0.91516005     0.25400
C3248       C  0.68532747  0.97023814  0.92454117    -0.22700
C3249       C  0.67365039  0.96452431  0.94895973     0.20300
C3250       C  0.67440494  0.94239649  0.96290814     0.25400
C3251       C  0.68689595  0.92576751  0.95264701    -0.22600
C3252       C  0.70128880  0.93340334  0.92917502     0.20300
F3253       F  0.71302285  0.91736077  0.91873147    -0.12600
F3254       F  0.71197729  0.96079730  0.89160496    -0.14900
F3255       F  0.66078975  0.93564777  0.98577591    -0.15000
F3256       F  0.65864974  0.97816018  0.95836393    -0.12600
C3257       C  0.79844485  0.84635140  0.56285086     0.25400
C3258       C  0.78973204  0.82303369  0.57956775    -0.22700
C3259       C  0.76011391  0.79886154  0.57850292     0.20300
C3260       C  0.73899021  0.79871958  0.56160013     0.25400
C3261       C  0.74731570  0.82283589  0.54558137    -0.22600
C3262       C  0.77774742  0.84616390  0.54588206     0.20300
F3263       F  0.78746380  0.86958710  0.53033621    -0.12600
F3264       F  0.82693892  0.86991363  0.56348869    -0.14900
F3265       F  0.71007910  0.77578410  0.56187893    -0.15000
F3266       F  0.75105787  0.77630520  0.59489143    -0.12600
C3267       C  0.81330259  0.85227900  0.95720310     0.25400
C3268       C  0.80652271  0.84367274  0.93257950    -0.22700
C3269       C  0.77669574  0.83446158  0.92415275     0.20300
C3270       C  0.75420732  0.83451275  0.93996617     0.25400
C3271       C  0.76117084  0.84369335  0.96450453    -0.22600
C3272       C  0.79084363  0.85222725  0.97304415     0.20300
F3273       F  0.79847104  0.86155091  0.99657311    -0.12600
F3274       F  0.84207514  0.86204430  0.96560208    -0.14900
F3275       F  0.72551536  0.82499295  0.93146385    -0.15000
F3276       F  0.76943900  0.82548026  0.90049882    -0.12600
C3277       C  0.70163609  0.94939717  0.55559842     0.25400
C3278       C  0.67500200  0.92797089  0.54404577    -0.22700
C3279       C  0.64876046  0.93136209  0.54412733     0.20300
C3280       C  0.64857042  0.95442914  0.55698673     0.25400
C3281       C  0.67452249  0.97438857  0.57003313    -0.22600
C3282       C  0.70124068  0.97206527  0.56860719     0.20300
F3283       F  0.72627925  0.99025678  0.58156431    -0.12600
F3284       F  0.72807147  0.94795072  0.55518143    -0.14900
F3285       F  0.62241470  0.95634841  0.55795516    -0.15000
F3286       F  0.62275640  0.91146843  0.53316726    -0.12600
C3287       C  0.56757990  0.72942949  0.57568904     0.25400
C3288       C  0.54521223  0.70184983  0.56730553    -0.22700
C3289       C  0.54382441  0.69649549  0.54180285     0.20300
C3290       C  0.56477421  0.71779783  0.52522873     0.25400
C3291       C  0.58805522  0.74482182  0.53377946    -0.22600
C3292       C  0.58906578  0.75041938  0.55920738     0.20300
F3293       F  0.61060546  0.77634105  0.56814209    -0.12600
F3294       F  0.56895277  0.73590544  0.60009532    -0.14900
F3295       F  0.56303184  0.71139151  0.50079627    -0.15000
F3296       F  0.52330131  0.67011734  0.53294091    -0.12600
C3297       C  0.94253150  0.87975085  0.83280169     0.25400
C3298       C  0.93437163  0.85372864  0.81999107    -0.22700
C3299       C  0.90805639  0.82804551  0.82783799     0.20300
C3300       C  0.88854284  0.82913578  0.84619153     0.25400
C3301       C  0.89613715  0.85548054  0.85814053    -0.22600
C3302       C  0.92412112  0.88029689  0.85225454     0.20300
F3303       F  0.93432386  0.90468359  0.86594743    -0.12600
F3304       F  0.96854932  0.90475289  0.82653658    -0.14900
F3305       F  0.86236527  0.80436941  0.85260402    -0.15000
F3306       F  0.90143254  0.80193873  0.81800184    -0.12600
C3307       C  0.57409146  0.94615678  0.83398076     0.25400
C3308       C  0.58428820  0.93618513  0.81368413    -0.22700
C3309       C  0.61474587  0.94136848  0.81296170     0.20300
C3310       C  0.63474987  0.95689514  0.83189979     0.25400
C3311       C  0.62437723  0.96676359  0.85206364    -0.22600
C3312       C  0.59370572  0.96056662  0.85328046     0.20300
F3313       F  0.58177175  0.46365269  0.87801773    -0.12600
F3314       F  0.54500762  0.94192714  0.83508244    -0.14900
F3315       F  0.66432310  0.96258671  0.83049521    -0.15000
F3316       F  0.62510760  0.93151182  0.79390557    -0.12600
C3317       C  0.62795511  0.95866056  0.66288601     0.25400
C3318       C  0.62271051  0.97708664  0.64715449    -0.22700
C3319       C  0.59515365  0.97797371  0.64961241     0.20300
C3320       C  0.57453187  0.96297167  0.66903155     0.25400
C3321       C  0.57951910  0.94422803  0.68462047    -0.22600
C3322       C  0.60627568  0.94197848  0.68122725     0.20300
F3323       F  0.61129506  0.92355204  0.69570657    -0.12600
F3324       F  0.65378366  0.95638089  0.66007742    -0.14900
F3325       F  0.54912312  0.96591388  0.67207942    -0.15000
F3326       F  0.58731631  0.99192968  0.63245957    -0.12600
C3327       C  0.87305207  0.84568035  0.68135941     0.25400
C3328       C  0.87447599  0.83617745  0.65731087    -0.22700
C3329       C  0.89842413  0.82984685  0.65162044     0.20300
C3330       C  0.91964814  0.83283093  0.66950194     0.25400
C3331       C  0.92103258  0.84718820  0.69169607    -0.22600
C3332       C  0.89767967  0.85412754  0.69708317     0.20300
F3333       F  0.89837932  0.86857914  0.71798644    -0.12600
F3334       F  0.84790853  0.84671450  0.68987578    -0.14900
F3335       F  0.94012054  0.82342344  0.66445467    -0.15000
F3336       F  0.90217905  0.82171766  0.62857576    -0.12600
C3337       C  0.54424937  0.67048078  0.83466588     0.25400
C3338       C  0.52631333  0.64793110  0.85167164    -0.22700
C3339       C  0.52809585  0.62205667  0.85132972     0.20300
C3340       C  0.54600401  0.61802175  0.83325991     0.25400
C3341       C  0.56347389  0.64032989  0.81583577    -0.22600
C3342       C  0.56283539  0.66679432  0.81698696     0.20300
F3343       F  0.58043728  0.68913167  0.80109754    -0.12600
F3344       F  0.54401035  0.69622819  0.83544003    -0.14900
F3345       F  0.54637863  0.59232651  0.83283359    -0.15000
F3346       F  0.51344929  0.60114241  0.86904130    -0.12600
C3347       C  0.62723126  0.53507360  0.85345352     0.25400
C3348       C  0.65476723  0.53400923  0.85350702    -0.22700
C3349       C  0.67818470  0.55082997  0.83619924     0.20300
C3350       C  0.67385235  0.56799774  0.81863359     0.25400
C3351       C  0.64578815  0.56814049  0.81789453    -0.22600
C3352       C  0.62253280  0.55158678  0.83548220     0.20300
F3353       F  0.59517611  0.55124673  0.83510448    -0.12600
F3354       F  0.60523241  0.52077943  0.87116580    -0.14900
F3355       F  0.69692642  0.58433877  0.80220899    -0.15000
F3356       F  0.70528497  0.55066026  0.83645069    -0.12600
C3357       C  0.68118804  0.57192753  0.68651284     0.25400
C3358       C  0.65547103  0.57616682  0.68802146    -0.22700
C3359       C  0.63387545  0.56555076  0.66913641     0.20300
C3360       C  0.63853905  0.55211751  0.64866463     0.25400
C3361       C  0.66293374  0.54605627  0.64793985    -0.22600
C3362       C  0.68446326  0.55626001  0.66687492     0.20300
F3363       F  0.70846145  0.55090002  0.66636176    -0.12600
F3364       F  0.70284969  0.58270675  0.70411871    -0.14900
F3365       F  0.61955777  0.54556764  0.62928309    -0.15000
F3366       F  0.60807768  0.56806405  0.67061831    -0.12600
C3367       C  0.56727546  0.62501951  0.66729796     0.25400
C3368       C  0.57851988  0.64685474  0.68531243    -0.22700
C3369       C  0.57470829  0.67150338  0.68221998     0.20300
C3370       C  0.55902011  0.67376875  0.66184540     0.25400
C3371       C  0.54725032  0.65158581  0.64422456    -0.22600
C3372       C  0.55240919  0.62771831  0.64667453     0.20300
F3373       F  0.54341803  0.60719197  0.62893107    -0.12600
F3374       F  0.57045830  0.60086586  0.66982504    -0.14900
F3375       F  0.55501013  0.69744610  0.65939091    -0.15000
F3376       F  0.58595854  0.69318559  0.69901727    -0.12600
C3377       C  0.95321860  0.62379627  0.82814068     0.25400
C3378       C  0.95840442  0.61554537  0.85153780    -0.22700
C3379       C  0.95025416  0.58627533  0.85603597     0.20300
C3380       C  0.93954038  0.56607399  0.83687397     0.25400
C3381       C  0.93425305  0.57410908  0.81319981    -0.22600
C3382       C  0.94043673  0.60316140  0.80938513     0.20300
F3383       F  0.93440329  0.61174013  0.78740758    -0.12600
F3384       F  0.96099317  0.65201309  0.82337712    -0.14900
F3385       F  0.93528852  0.53885257  0.84135754    -0.15000
F3386       F  0.95387115  0.57749031  0.87882125    -0.12600
C3387       C  0.84518173  0.89885443  0.81539919     0.25400
C3388       C  0.86961271  0.92779148  0.81454599    -0.22700
C3389       C  0.88953461  0.93785674  0.83471472     0.20300
C3390       C  0.88530011  0.91949926  0.85495726     0.25400
C3391       C  0.86263273  0.89011204  0.85472928    -0.22600
C3392       C  0.84211212  0.88003972  0.83511996     0.20300
F3393       F  0.81867225  0.85217143  0.83543052    -0.12600
F3394       F  0.82408774  0.88888769  0.79733613    -0.14900
F3395       F  0.90293104  0.93062403  0.87510023    -0.15000
F3396       F  0.91323389  0.96558884  0.83486738    -0.12600
C3397       C  0.96904409  0.62262528  0.66432404     0.25400
C3398       C  0.98020514  0.61410327  0.64376968    -0.22700
C3399       C  0.97578017  0.58565164  0.64284379     0.20300
C3400       C  0.96205373  0.56644063  0.66287956     0.25400
C3401       C  0.95003290  0.57449791  0.68332746    -0.22600
C3402       C  0.95330444  0.60271802  0.68366707     0.20300
F3403       F  0.94079965  0.61080919  0.70247852    -0.12600
F3404       F  0.97307924  0.65011073  0.66544724    -0.14900
F3405       F  0.96019561  0.53976426  0.66218450    -0.15000
F3406       F  0.98463955  0.57642994  0.62244294    -0.12600
C3407       C  0.83620673  0.90550524  0.68093317     0.25400
C3408       C  0.86727322  0.92565901  0.68398485    -0.22700
C3409       C  0.88960251  0.92345591  0.66936768     0.20300
C3410       C  0.88103470  0.90077603  0.65247232     0.25400
C3411       C  0.85002642  0.87958052  0.65038780    -0.22600
C3412       C  0.82761002  0.88270459  0.66422227     0.20300
F3413       F  0.79749376  0.86261151  0.66264343    -0.12600
F3414       F  0.81428570  0.90746144  0.69470422    -0.14900
F3415       F  0.90304444  0.89889574  0.63877310    -0.15000
F3416       F  0.91977760  0.94262557  0.67222219    -0.12600
C3417       C  0.97188486  0.68753166  0.56574696     0.25400
C3418       C  0.97382538  0.66181596  0.56697286    -0.22700
C3419       C  0.95190721  0.63705724  0.55444506     0.20300
C3420       C  0.92768754  0.63763895  0.54202184     0.25400
C3421       C  0.92519878  0.66320375  0.54147277    -0.22600
C3422       C  0.94812577  0.68833039  0.55305691     0.20300
F3423       F  0.94686317  0.71360211  0.55324622    -0.12600
F3424       F  0.99180048  0.71145689  0.57827217    -0.14900
F3425       F  0.90674319  0.61322285  0.53064063    -0.15000
F3426       F  0.95355763  0.61198149  0.55485771    -0.12600
C3427       C  0.79630855  0.54779749  0.44871886     0.25400
C3428       C  0.82216029  0.56928489  0.46113995    -0.22700
C3429       C  0.84824119  0.56570580  0.46266782     0.20300
C3430       C  0.84972835  0.54340296  0.44968318     0.25400
C3431       C  0.82524414  0.52428193  0.43494703    -0.22600
C3432       C  0.79816145  0.52602243  0.43533892     0.20300
F3433       F  0.77460528  0.50868576  0.42064154    -0.12600
F3434       F  0.76954904  0.54860669  0.44817088    -0.14900
F3435       F  0.87621234  0.54206727  0.44966067    -0.15000
F3436       F  0.87299034  0.58463536  0.47553777    -0.12600
C3437       C  0.74738465  0.56228241  0.57933238     0.25400
C3438       C  0.71728394  0.54304107  0.57176671    -0.22700
C3439       C  0.71005447  0.54302095  0.54685993     0.20300
C3440       C  0.73196920  0.56245357  0.53000649     0.25400
C3441       C  0.76139045  0.58323655  0.53782193    -0.22600
C3442       C  0.76923394  0.58241188  0.56251039     0.20300
F3443       F  0.79734839  0.60196413  0.57064580    -0.12600
F3444       F  0.75524247  0.56225633  0.60326032    -0.14900
F3445       F  0.72401080  0.56128679  0.50596142    -0.15000
F3446       F  0.68113734  0.52555016  0.53904869    -0.12600
C3447       C  0.93151701  0.78211724  0.47388436     0.25400
C3448       C  0.91143243  0.75295176  0.46762227    -0.22700
C3449       C  0.91423235  0.74346861  0.44392259     0.20300
C3450       C  0.93557597  0.76297611  0.42649605     0.25400
C3451       C  0.95417254  0.79265604  0.43210272    -0.22600
C3452       C  0.95243845  0.80183826  0.45622996     0.20300
F3453       F  0.96976102  0.83024591  0.46236178    -0.12600
F3454       F  0.92991603  0.79192266  0.49676867    -0.14900
F3455       F  0.93785136  0.75290287  0.40390112    -0.15000
F3456       F  0.89654537  0.71512464  0.43770365    -0.12600
C3457       C  0.72459824  0.67202213  0.45905643     0.25400
C3458       C  0.75536887  0.68330397  0.45109588    -0.22700
C3459       C  0.76395351  0.69468703  0.42687952     0.20300
C3460       C  0.74170943  0.69290251  0.41042360     0.25400
C3461       C  0.71074689  0.68033458  0.41812513    -0.22600
C3462       C  0.70254037  0.67076859  0.44277869     0.20300
F3463       F  0.67271820  0.65787585  0.45048937    -0.12600
F3464       F  0.71549971  0.66026916  0.48216294    -0.14900
F3465       F  0.75002229  0.70182586  0.38652452    -0.15000
F3466       F  0.79318241  0.70471921  0.41840715    -0.12600
C3467       C  0.83552266  0.77481131  0.54324627     0.25400
C3468       C  0.82660781  0.74621440  0.55111525    -0.22700
C3469       C  0.81217766  0.73634111  0.57444819     0.20300
C3470       C  0.80786427  0.75516035  0.59015693     0.25400
C3471       C  0.81872327  0.78441472  0.58308774    -0.22600
C3472       C  0.83182869  0.79390091  0.55920157     0.20300
F3473       F  0.84380005  0.82232306  0.55223314    -0.12600
F3474       F  0.85054592  0.78505636  0.52116501    -0.14900
F3475       F  0.79501890  0.74543578  0.61302231    -0.15000
F3476       F  0.80386715  0.70889972  0.58258077    -0.12600
C3477       C  0.72097830  0.56456646  0.96466163     0.25400
C3478       C  0.75028307  0.58443066  0.95524199    -0.22700
C3479       C  0.76063627  0.57896641  0.93265241     0.20300
C3480       C  0.74126023  0.55483493  0.91883907     0.25400
C3481       C  0.71109454  0.53614476  0.92725893    -0.22600
C3482       C  0.70122007  0.54078230  0.95048127     0.20300
F3483       F  0.67159047  0.52423818  0.95817235    -0.12600
F3484       F  0.71055995  0.56970201  0.98642263    -0.14900
F3485       F  0.75088846  0.55121480  0.89611890    -0.10200
F3486       F  0.78903703  0.59786648  0.92343127    -0.12600
C3487       C  0.69008019  0.65252406  0.04128478     0.25400
C3488       C  0.69730750  0.66048969  0.06604297    -0.22700
C3489       C  0.72740660  0.66961193  0.07373564     0.20300
C3490       C  0.74937978  0.66935909  0.05741448     0.25400
C3491       C  0.74175691  0.65986726  0.03298242    -0.22600
C3492       C  0.71205772  0.65221156  0.02490258     0.20300
F3493       F  0.70371394  0.64293057  0.00146164    -0.12600
F3494       F  0.66120968  0.64328856  0.03334262    -0.14900
F3495       F  0.77815949  0.67848226  0.06554441    -0.15000
F3496       F  0.73529433  0.67812844  0.09740490    -0.12600
C3497       C  0.91717101  0.68511769  0.93757981     0.25400
C3498       C  0.91829859  0.67781445  0.96252304    -0.22700
C3499       C  0.93923950  0.66806444  0.96883051     0.20300
C3500       C  0.95764862  0.66479905  0.95075657     0.25400
C3501       C  0.95589759  0.67121742  0.92582572    -0.22600
C3502       C  0.93556670  0.68153056  0.91936613     0.20300
F3503       F  0.93346482  0.68802774  0.89537443    -0.12600
F3504       F  0.89758121  0.69473909  0.93067213    -0.14900
F3505       F  0.97647670  0.65424431  0.95758402    -0.15000
F3506       F  0.94196008  0.66145370  0.99266801    -0.12600
C3507       C  0.82703357  0.53690972  0.05214648     0.25400
C3508       C  0.81037766  0.52834742  0.07469708    -0.22700
C3509       C  0.79158819  0.54049702  0.08130337     0.20300
C3510       C  0.79229699  0.56324127  0.06701157     0.25400
C3511       C  0.81246557  0.57450533  0.04642493    -0.22600
C3512       C  0.82821078  0.55988692  0.03822954     0.20300
F3513       F  0.84682238  0.56943276  0.01772504    -0.12600
F3514       F  0.84514891  0.52547803  0.04503149    -0.14900
F3515       F  0.77578820  0.57611826  0.07473078    -0.15000
F3516       F  0.77451219  0.53193227  0.10262705    -0.12600
C3517       C  0.97884434  0.77107394  0.06971602     0.25400
C3518       C  0.97844697  0.79742303  0.07208733    -0.22700
C3519       C  0.95789554  0.80229107  0.05798427     0.20300
C3520       C  0.93596055  0.78003583  0.04364719     0.25400
C3521       C  0.93446086  0.75254840  0.04296568    -0.22600
C3522       C  0.95756253  0.74908718  0.05491804     0.20300
F3523       F  0.95888038  0.72389586  0.05333950    -0.12600
F3524       F  0.99818420  0.76564238  0.08328853    -0.14900
F3525       F  0.91527327  0.78500638  0.03161630    -0.15000
F3526       F  0.95800395  0.82817632  0.05926138    -0.12600
C3527       C  0.81384382  0.76011844  0.94854845     0.25400
C3528       C  0.83899770  0.76140090  0.96127170    -0.22700
C3529       C  0.86581562  0.78849218  0.96289299     0.20300
C3530       C  0.86803235  0.81321744  0.95078984     0.25400
C3531       C  0.84366943  0.81123011  0.93660865    -0.22600
C3532       C  0.81628027  0.78467066  0.93626207     0.20300
F3533       F  0.79271885  0.78174386  0.92219237    -0.12600
F3534       F  0.78728156  0.73457989  0.94656877    -0.14900
F3535       F  0.89459941  0.83889164  0.95180380    -0.15000
F3536       F  0.88998207  0.79101008  0.97587220    -0.12600
loop_ 
_geom_bond_atom_site_label_1 
_geom_bond_atom_site_label_2 
_geom_bond_distance 
_geom_bond_site_symmetry_2 
_ccdc_geom_bond_type 
O1           Ni7   1.929       .  S
O1           C22   1.271       .  A
O2          Ni25   1.949   1_556  S
O2           C11   1.284       .  A
O3           Ni7   1.890       .  S
O3          Ni25   1.912       .  S
O3          Ni19   1.905       .  S
O3           H26   0.966       .  S
C4           O21   1.275       .  A
C4           O13   1.278       .  A
C4          C826   1.461       .  S
O5          Ni24   1.913       .  S
O5           C11   1.268       .  A
O6          Ni24   1.908       .  S
O6            C8   1.266   1_556  A
Ni7          O10   1.914       .  S
Ni7          O12   1.893       .  S
C8           O18   1.277       .  A
C8          C839   1.488       .  S
O9          Ni25   1.932       .  S
O9           C15   1.284       .  A
O10          C15   1.277       .  A
C11         C876   1.496       .  S
O12          C14   1.266   1_554  A
O13         Ni24   1.918       .  S
C14          O20   1.282       .  A
C14         C846   1.499       .  S
C15         C869   1.489       .  S
H16          O17   0.966       .  S
O17         Ni25   1.919   1_556  S
O17         Ni19   1.890   1_556  S
O17         Ni24   1.886       .  S
O18         Ni19   1.943       .  S
Ni19         O23   1.910       .  S
Ni19         O21   1.920   1_554  S
O20         Ni25   1.963   1_556  S
C22          O23   1.268       .  A
C22         C859   1.476       .  S
O27         Ni33   1.911       .  S
O27          C48   1.268       .  A
O28         Ni51   1.925       .  S
O28          C37   1.271       .  A
O29         Ni33   1.887       .  S
O29         Ni51   1.897       .  S
O29         Ni45   1.917       .  S
O29          H52   0.967       .  S
C30          O47   1.284       .  A
C30          O39   1.276       .  A
C30         C776   1.492       .  S
O31         Ni50   1.924       .  S
O31          C37   1.269       .  A
O32         Ni50   1.886       .  S
O32          C34   1.265       .  A
Ni33         O36   1.911       .  S
Ni33         O38   1.922       .  S
C34          O44   1.280       .  A
C34         C789   1.486       .  S
O35         Ni51   1.944       .  S
O35          C41   1.283       .  A
O36          C41   1.276       .  A
C37         C806   1.479       .  S
O38          C40   1.269       .  A
O39         Ni50   1.918       .  S
C40          O46   1.273       .  A
C40         C796   1.492       .  S
C41         C816   1.472       .  S
H42          O43   0.965       .  S
O43         Ni51   1.913       .  S
O43         Ni45   1.920       .  S
O43         Ni50   1.889       .  S
O44         Ni45   1.959       .  S
Ni45         O49   1.950       .  S
Ni45         O47   1.929       .  S
O46         Ni51   1.935       .  S
C48          O49   1.283       .  A
C48         C769   1.497       .  S
N53          C58   1.351       .  A
N53         C941   1.352   1_545  A
N53          H85   1.041       .  S
N54          C61   1.350       .  A
N54          C62   1.352       .  A
N55          C60   1.354       .  A
N55         C943   1.351   1_545  A
N55          H86   1.042       .  S
N56          C63   1.351       .  A
N56          C64   1.352       .  A
C57         N937   1.351       .  A
C57          C65   1.385       .  A
C57          C73   1.409       .  A
C58          C74   1.415       .  A
C58          C66   1.388       .  A
C59         N939   1.351       .  A
C59          C67   1.386       .  A
C59          C76   1.415       .  A
C60          C75   1.417       .  A
C60          C68   1.388       .  A
C61          C73   1.410       .  A
C61          C69   1.382       .  A
C62          C76   1.416       .  A
C62          C70   1.388       .  A
C63          C71   1.386       .  A
C63          C74   1.416       .  A
C64          C72   1.384       .  A
C64          C75   1.415       .  A
C65         C950   1.378       .  A
C65          H77   1.082       .  S
C66         C949   1.379   1_545  A
C66          H78   1.082       .  S
C67         C952   1.381       .  A
C67          H79   1.082       .  S
C68         C951   1.379   1_545  A
C68          H80   1.082       .  S
C69          C70   1.375       .  A
C69          H81   1.080       .  S
C70          H82   1.081       .  S
C71          C72   1.378       .  A
C71          H83   1.081       .  S
C72          H84   1.080       .  S
C73         C756   1.487       .  S
C74         C749   1.495       .  S
C75         C729   1.506       .  S
C76         C736   1.501       .  S
N87          C92   1.349       .  A
N87          C91   1.347       .  A
N87         H119   1.041       .  S
N88          C95   1.349       .  A
N88          C96   1.349       .  A
N89          C94   1.351       .  A
N89          C93   1.351       .  A
N89         H120   1.042       .  S
N90          C97   1.348       .  A
N90          C98   1.346       .  A
C91          C99   1.387       .  A
C91         C107   1.409       .  A
C92         C108   1.410       .  A
C92         C100   1.387       .  A
C93         C101   1.386       .  A
C93         C110   1.412       .  A
C94         C109   1.414       .  A
C94         C102   1.387       .  A
C95         C107   1.412       .  A
C95         C103   1.387       .  A
C96         C110   1.410       .  A
C96         C104   1.384       .  A
C97         C105   1.386       .  A
C97         C108   1.408       .  A
C98         C106   1.387       .  A
C98         C109   1.408       .  A
C99         C100   1.378       .  A
C99         H111   1.082       .  S
C100        H112   1.082       .  S
C101        C102   1.378       .  A
C101        H113   1.082       .  S
C102        H114   1.082       .  S
C103        C104   1.376       .  A
C103        H115   1.081       .  S
C104        H116   1.080       .  S
C105        C106   1.376       .  A
C105        H117   1.081       .  S
C106        H118   1.081       .  S
C107        C716   1.486       .  S
C108        C706   1.485       .  S
C109        C699   1.488       .  S
C110        C689   1.491       .  S
N121        C125   1.352       .  A
N121       C1894   1.346   1_455  A
N121        H153   1.040       .  S
N122        C129   1.352       .  A
N122        C130   1.347       .  A
N123        C127   1.353       .  A
N123       C1896   1.356   1_455  A
N123        H154   1.036       .  S
N124        C131   1.355       .  A
N124        C132   1.353       .  A
C125        C133   1.389       .  A
C125        C141   1.414       .  A
C126       N1889   1.346       .  A
C126        C142   1.403       .  A
C126        C134   1.383       .  A
C127        C135   1.385       .  A
C127        C144   1.419       .  A
C128       N1891   1.356       .  A
C128        C143   1.424       .  A
C128        C136   1.390       .  A
C129        C141   1.412       .  A
C129        C137   1.385       .  A
C130        C144   1.410       .  A
C130        C138   1.387       .  A
C131        C139   1.384       .  A
C131        C142   1.414       .  A
C132        C140   1.388       .  A
C132        C143   1.423       .  A
C133       C1902   1.376   1_455  A
C133        H145   1.082       .  S
C134       C1901   1.376       .  A
C134        H146   1.082       .  S
C135       C1904   1.369   1_455  A
C135        H147   1.082       .  S
C136       C1903   1.369       .  A
C136        H148   1.077       .  S
C137        C138   1.374       .  A
C137        H149   1.081       .  S
C138        H150   1.082       .  S
C139        C140   1.364       .  A
C139        H151   1.078       .  S
C140        H152   1.081       .  S
C141        C656   1.496       .  S
C142        C646   1.490       .  S
C143        C679   1.500       .  S
C144        C669   1.485       .  S
C155        C766   1.491       .  S
C155        C160   1.407       .  A
C155       C1924   1.428       .  A
C156        C636   1.492       .  S
C156        C157   1.408       .  A
C156       C1923   1.428   1_455  A
C157        C158   1.396       .  A
C157        H162   1.085       .  S
C158        C719   1.475       .  S
C158       C1927   1.407   1_455  A
C159        C746   1.478       .  S
C159        C160   1.397       .  A
C159       C1926   1.407       .  A
C160        H161   1.085       .  S
C163        C786   1.488       .  S
C163        C168   1.406       .  A
C163       C1048   1.424   1_545  A
C164        C629   1.491       .  S
C164        C165   1.403       .  A
C164       C1047   1.425       .  A
C165        C166   1.395       .  A
C165        H170   1.085       .  S
C166        C666   1.469       .  S
C166       C1051   1.408       .  A
C167        C709   1.473       .  S
C167        C168   1.397       .  A
C167       C1050   1.409   1_545  A
C168        H169   1.085       .  S
C171        C616   1.487       .  S
C171        C172   1.423       .  A
C171        C176   1.406       .  A
C172        C879   1.489       .  S
C172        C173   1.403       .  A
C173        C174   1.399       .  A
C173        H178   1.085       .  S
C174        C649   1.482       .  S
C174        C175   1.413       .  A
C175        C739   1.479       .  S
C175        C176   1.398       .  A
C176        H177   1.085       .  S
C179        C606   1.480       .  S
C179        C180   1.406       .  A
C179        C184   1.402       .  A
C180        C819   1.486       .  S
C180        C181   1.404       .  A
C181        C182   1.411       .  A
C181        H186   1.082       .  S
C182        C676   1.510       .  S
C182        C183   1.431       .  A
C183        C759   1.489       .  S
C183        C184   1.403       .  A
C184        H185   1.085       .  S
C187        C596   1.478       .  S
C187        C192   1.408       .  A
C187       C1072   1.410       .  A
C188        C829   1.476       .  S
C188        C189   1.401       .  A
C188       C1071   1.414   1_545  A
C189        C190   1.392       .  A
C189        H194   1.085       .  S
C190        C696   1.470       .  S
C190       C1075   1.408   1_545  A
C191        C659   1.477       .  S
C191        C192   1.403       .  A
C191       C1074   1.409       .  A
C192        H193   1.084       .  S
C195        C589   1.489       .  S
C195        C200   1.402       .  A
C195       C1964   1.423   1_455  A
C196        C849   1.495       .  S
C196        C197   1.414       .  A
C196       C1963   1.424       .  A
C197        C198   1.409       .  A
C197        H202   1.084       .  S
C198        C726   1.487       .  S
C198       C1967   1.413       .  A
C199        C686   1.482       .  S
C199        C200   1.396       .  A
C199       C1966   1.413   1_455  A
C200        H201   1.085       .  S
O203       Ni209   1.909       .  S
O203        C224   1.265       .  A
O204       Ni227   1.951       .  S
O204        C213   1.283       .  A
O205       Ni209   1.872       .  S
O205       Ni227   1.904       .  S
O205       Ni221   1.921       .  S
O205        H228   0.968       .  S
C206        O223   1.283       .  A
C206        O215   1.281       .  A
C206        C559   1.475       .  S
O207       Ni226   1.904       .  S
O207        C213   1.263       .  A
O208       Ni226   1.891       .  S
O208        C210   1.262       .  A
Ni209       O212   1.905       .  S
Ni209       O214   1.889       .  S
C210        O220   1.276       .  A
C210        C639   1.485       .  S
O211       Ni227   1.953       .  S
O211        C217   1.289       .  A
O212        C217   1.277       .  A
C213        C569   1.490       .  S
O214        C216   1.265       .  A
O215       Ni226   1.920       .  S
C216        O222   1.283       .  A
C216        C576   1.508       .  S
C217        C626   1.491       .  S
H218        O219   0.965       .  S
O219       Ni227   1.933       .  S
O219       Ni221   1.891       .  S
O219       Ni226   1.877       .  S
O220       Ni221   1.946       .  S
Ni221       O225   1.929       .  S
Ni221       O223   1.939       .  S
O222       Ni227   1.969       .  S
C224        O225   1.271       .  A
C224        C609   1.487       .  S
O229       Ni235   1.920       .  S
O229        C250   1.270       .  A
O230       Ni253   1.923       .  S
O230        C239   1.271       .  A
O231       Ni235   1.890       .  S
O231       Ni253   1.900   1_554  S
O231       Ni247   1.924   1_554  S
O231        H254   0.966       .  S
C232        O249   1.287       .  A
C232        O241   1.275       .  A
C232        C586   1.493       .  S
O233       Ni252   1.921       .  S
O233        C239   1.268       .  A
O234       Ni252   1.890       .  S
O234        C236   1.265   1_556  A
Ni235       O238   1.924       .  S
Ni235       O240   1.896       .  S
C236        O246   1.277       .  A
C236        C536   1.495       .  S
O237       Ni253   1.917   1_554  S
O237        C243   1.274       .  A
O238        C243   1.278       .  A
C239        C599   1.484       .  S
O240        C242   1.266   1_554  A
O241       Ni252   1.907       .  S
C242        O248   1.278       .  A
C242        C619   1.483       .  S
C243        C546   1.465       .  S
H244        O245   0.966       .  S
O245       Ni253   1.907       .  S
O245       Ni247   1.911       .  S
O245       Ni252   1.890       .  S
O246       Ni247   1.948   1_554  S
Ni247       O251   1.942   1_556  S
Ni247       O249   1.945       .  S
O248       Ni253   1.945       .  S
C250        O251   1.280       .  A
C250        C526   1.497       .  S
N255        C259   1.357       .  A
N255       C2028   1.357       .  A
N255        H287   1.038       .  S
N256        C263   1.353       .  A
N256        C264   1.356       .  A
N257        C261   1.348       .  A
N257       C2030   1.352       .  A
N257        H288   1.041       .  S
N258        C265   1.349       .  A
N258        C266   1.351       .  A
C259        C267   1.392       .  A
C259        C275   1.429       .  A
C260       N2023   1.357   1_455  A
C260        C276   1.419       .  A
C260        C268   1.383       .  A
C261        C269   1.385       .  A
C261        C278   1.409       .  A
C262       N2025   1.352   1_455  A
C262        C277   1.415       .  A
C262        C270   1.388       .  A
C263        C275   1.422       .  A
C263        C271   1.387       .  A
C264        C278   1.419       .  A
C264        C272   1.386       .  A
C265        C273   1.384       .  A
C265        C276   1.410       .  A
C266        C274   1.386       .  A
C266        C277   1.414       .  A
C267       C2036   1.369       .  A
C267        H279   1.077       .  S
C268       C2035   1.369   1_455  A
C268        H280   1.082       .  S
C269       C2038   1.379       .  A
C269        H281   1.082       .  S
C270       C2037   1.379   1_455  A
C270        H282   1.082       .  S
C271        C272   1.364       .  A
C271        H283   1.080       .  S
C272        H284   1.078       .  S
C273        C274   1.373       .  A
C273        H285   1.080       .  S
C274        H286   1.081       .  S
C275        C496   1.501       .  S
C276        C516   1.496       .  S
C277        C506   1.497       .  S
C278        C489   1.497       .  S
N289        C294   1.356       .  A
N289        C293   1.360       .  A
N289        H321   1.040       .  S
N290        C297   1.348       .  A
N290        C298   1.347       .  A
N291        C296   1.351       .  A
N291        C295   1.352       .  A
N291        H322   1.042       .  S
N292        C299   1.354       .  A
N292        C300   1.355       .  A
C293        C301   1.385       .  A
C293        C309   1.423       .  A
C294        C310   1.428       .  A
C294        C302   1.391       .  A
C295        C303   1.388       .  A
C295        C312   1.416       .  A
C296        C311   1.408       .  A
C296        C304   1.386       .  A
C297        C309   1.407       .  A
C297        C305   1.385       .  A
C298        C312   1.410       .  A
C298        C306   1.387       .  A
C299        C307   1.388       .  A
C299        C310   1.421       .  A
C300        C308   1.384       .  A
C300        C311   1.418       .  A
C301        C302   1.369       .  A
C301        H313   1.081       .  S
C302        H314   1.079       .  S
C303        C304   1.375       .  A
C303        H315   1.082       .  S
C304        H316   1.081       .  S
C305        C306   1.376       .  A
C305        H317   1.082       .  S
C306        H318   1.082       .  S
C307        C308   1.376       .  A
C307        H319   1.081       .  S
C308        H320   1.081       .  S
C309        C446   1.502       .  S
C310        C466   1.500       .  S
C311        C479   1.490       .  S
C312        C456   1.491       .  S
C323        C779   1.485       .  S
C323        C328   1.398       .  A
C323       C1208   1.421   1_545  A
C324        C579   1.493       .  S
C324        C325   1.415       .  A
C324       C1207   1.419       .  A
C325        C326   1.415       .  A
C325        H330   1.084       .  S
C326        C469   1.503       .  S
C326       C1211   1.420       .  A
C327        C486   1.481       .  S
C327        C328   1.391       .  A
C327       C1210   1.423   1_545  A
C328        H329   1.086       .  S
N331        C335   1.353       .  A
N331       C1220   1.356       .  A
N331        H363   1.041       .  S
N332        C339   1.350       .  A
N332        C340   1.352       .  A
N333        C337   1.352       .  A
N333       C1222   1.351       .  A
N333        H364   1.041       .  S
N334        C341   1.353       .  A
N334        C342   1.352       .  A
C335        C343   1.386       .  A
C335        C351   1.415       .  A
C336       N1215   1.356   1_545  A
C336        C352   1.419       .  A
C336        C344   1.387       .  A
C337        C345   1.385       .  A
C337        C354   1.411       .  A
C338       N1217   1.350   1_545  A
C338        C353   1.413       .  A
C338        C346   1.387       .  A
C339        C351   1.413       .  A
C339        C347   1.387       .  A
C340        C354   1.412       .  A
C340        C348   1.385       .  A
C341        C349   1.384       .  A
C341        C352   1.415       .  A
C342        C350   1.386       .  A
C342        C353   1.417       .  A
C343       C1228   1.380       .  A
C343        H355   1.082       .  S
C344       C1227   1.379   1_545  A
C344        H356   1.082       .  S
C345       C1230   1.377       .  A
C345        H357   1.082       .  S
C346       C1229   1.376   1_545  A
C346        H358   1.082       .  S
C347        C348   1.376       .  A
C347        H359   1.082       .  S
C348        H360   1.081       .  S
C349        C350   1.375       .  A
C349        H361   1.081       .  S
C350        H362   1.080       .  S
C351        C409   1.486       .  S
C352        C426   1.502       .  S
C353        C436   1.495       .  S
C354        C419   1.490       .  S
C365        C856   1.487       .  S
C365        C370   1.405       .  A
C365       C1250   1.411   1_545  A
C366        C549   1.485       .  S
C366        C367   1.400       .  A
C366       C1249   1.411       .  A
C367        C368   1.402       .  A
C367        H372   1.085       .  S
C368        C476   1.491       .  S
C368       C1253   1.430       .  A
C369        C499   1.501       .  S
C369        C370   1.406       .  A
C369       C1252   1.428   1_545  A
C370        H371   1.083       .  S
C373        C556   1.489       .  S
C373        C374   1.417       .  A
C373        C378   1.404       .  A
C374        C809   1.483       .  S
C374        C375   1.412       .  A
C375        C376   1.406       .  A
C375        H380   1.084       .  S
C376        C429   1.491       .  S
C376        C377   1.414       .  A
C377        C509   1.478       .  S
C377        C378   1.398       .  A
C378        H379   1.085       .  S
C381        C836   1.489       .  S
C381        C382   1.427       .  A
C381        C386   1.407       .  A
C382        C529   1.494       .  S
C382        C383   1.409       .  A
C383        C384   1.400       .  A
C383        H388   1.084       .  S
C384        C519   1.479       .  S
C384        C385   1.408       .  A
C385        C439   1.478       .  S
C385        C386   1.395       .  A
C386        H387   1.085       .  S
C389        C799   1.500       .  S
C389        C394   1.411       .  A
C389       C2158   1.424       .  A
C390        C566   1.491       .  S
C390        C391   1.404       .  A
C390       C2157   1.424   1_455  A
C391        C392   1.399       .  A
C391        H396   1.085       .  S
C392        C406   1.487       .  S
C392       C2161   1.421   1_455  A
C393        C449   1.501       .  S
C393        C394   1.409       .  A
C393       C2160   1.421       .  A
C394        H395   1.083       .  S
C397        C539   1.482       .  S
C397        C402   1.408       .  A
C397       C2166   1.415   1_455  A
C398        C866   1.483       .  S
C398        C399   1.397       .  A
C398       C2165   1.414       .  A
C399        C400   1.397       .  A
C399        H404   1.085       .  S
C400        C459   1.488       .  S
C400       C2169   1.421       .  A
C401        C416   1.490       .  S
C401        C402   1.407       .  A
C401       C2168   1.421   1_455  A
C402        H403   1.084       .  S
C405        C406   1.410       .  A
C405        C410   1.400       .  A
C405        F412   1.358       .  S
C406        C407   1.405       .  A
C407        C408   1.400       .  A
C407       F2182   1.357   1_455  S
C408        C409   1.405       .  A
C408        F413   1.357       .  S
C409        C410   1.404       .  A
C410        F411   1.358       .  S
F414       C2175   1.357       .  S
C415        C416   1.408       .  A
C415        C420   1.403       .  A
C415        F422   1.358       .  S
C416        C417   1.407       .  A
C417        C418   1.398       .  A
C417       F2192   1.358       .  S
C418        C419   1.405       .  A
C418       F2191   1.358       .  S
C419        C420   1.406       .  A
C420        F421   1.358       .  S
F423       C2186   1.358       .  S
F424       C2185   1.358       .  S
C425        C426   1.411       .  A
C425        C430   1.405       .  A
C425        F432   1.357       .  S
C426        C427   1.408       .  A
C427        C428   1.400       .  A
C427        F434   1.358       .  S
C428        C429   1.406       .  A
C428        F433   1.356       .  S
C429        C430   1.405       .  A
C430        F431   1.357       .  S
C435        C436   1.411       .  A
C435        C440   1.394       .  A
C435        F442   1.358       .  S
C436        C437   1.409       .  A
C437        C438   1.401       .  A
C437        F444   1.358       .  S
C438        C439   1.404       .  A
C438        F443   1.358       .  S
C439        C440   1.400       .  A
C440        F441   1.356       .  S
C445        C446   1.410       .  A
C445        C450   1.399       .  A
C445        F452   1.357       .  S
C446        C447   1.407       .  A
C447        C448   1.400       .  A
C447        F454   1.358       .  S
C448        C449   1.412       .  A
C448        F453   1.357       .  S
C449        C450   1.409       .  A
C450       F2219   1.356       .  S
F451       C2218   1.356       .  S
C455        C456   1.407       .  A
C455        C460   1.392       .  A
C455        F462   1.357       .  S
C456        C457   1.407       .  A
C457        C458   1.396       .  A
C457        F464   1.359       .  S
C458        C459   1.411       .  A
C458        F463   1.358       .  S
C459        C460   1.404       .  A
C460       F2229   1.356       .  S
F461       C2228   1.356       .  S
C465        C466   1.403       .  A
C465        C470   1.395       .  A
C465        F472   1.359       .  S
C466        C467   1.409       .  A
C467        C468   1.408       .  A
C467        F474   1.357       .  S
C468        C469   1.411       .  A
C468        F473   1.357       .  S
C469        C470   1.408       .  A
C470        F471   1.350       .  S
C475        C476   1.409       .  A
C475        C480   1.406       .  A
C475        F482   1.358       .  S
C476        C477   1.408       .  A
C477        C478   1.394       .  A
C477        F484   1.358       .  S
C478        C479   1.402       .  A
C478        F483   1.358       .  S
C479        C480   1.409       .  A
C480        F481   1.357       .  S
C485        C486   1.406       .  A
C485        C490   1.401       .  A
C485        F492   1.358       .  S
C486        C487   1.401       .  A
C487        C488   1.394       .  A
C487        F494   1.357       .  S
C488        C489   1.411       .  A
C488        F493   1.358       .  S
C489        C490   1.408       .  A
C490        F491   1.358       .  S
C495        C496   1.406       .  A
C495        C500   1.400       .  A
C495        F502   1.358       .  S
C496        C497   1.410       .  A
C497        C498   1.395       .  A
C497        F504   1.358       .  S
C498        C499   1.406       .  A
C498       F1387   1.356   1_545  S
C499        C500   1.414       .  A
C500        F501   1.357       .  S
F503       C1382   1.356       .  S
C505        C506   1.410       .  A
C505        C510   1.396       .  A
C505        F512   1.358       .  S
C506        C507   1.411       .  A
C507        C508   1.400       .  A
C507        F514   1.358       .  S
C508        C509   1.403       .  A
C508        F513   1.358       .  S
C509        C510   1.401       .  A
C510        F511   1.357       .  S
C515        C516   1.410       .  A
C515        C520   1.400       .  A
C515        F522   1.358       .  S
C516        C517   1.408       .  A
C517        C518   1.396       .  A
C517        F524   1.358       .  S
C518        C519   1.402       .  A
C518        F523   1.356       .  S
C519        C520   1.403       .  A
C520        F521   1.358       .  S
C525        C526   1.407       .  A
C525        C530   1.407       .  A
C525        F532   1.357       .  S
C526        C527   1.416       .  A
C527        C528   1.399       .  A
C527        F534   1.358       .  S
C528        C529   1.402       .  A
C528        F533   1.357       .  S
C529        C530   1.413       .  A
C530        F531   1.358       .  S
C535        C536   1.418       .  A
C535        C540   1.395       .  A
C535        F542   1.358       .  S
C536        C537   1.411       .  A
C537        C538   1.404       .  A
C537        F544   1.357       .  S
C538        C539   1.406       .  A
C538        F543   1.358       .  S
C539        C540   1.399       .  A
C540        F541   1.358       .  S
C545        C546   1.402       .  A
C545        C550   1.399       .  A
C545        F552   1.358       .  S
C546        C547   1.401       .  A
C547        C548   1.397       .  A
C547        F554   1.358       .  S
C548        C549   1.408       .  A
C548        F553   1.357       .  S
C549        C550   1.410       .  A
C550        F551   1.358       .  S
C555        C556   1.408       .  A
C555        C560   1.406       .  A
C555        F562   1.357       .  S
C556        C557   1.408       .  A
C557        C558   1.396       .  A
C557        F564   1.358       .  S
C558        C559   1.402       .  A
C558        F563   1.358       .  S
C559        C560   1.406       .  A
C560        F561   1.357       .  S
C565        C566   1.415       .  A
C565        C570   1.408       .  A
C565        F572   1.358       .  S
C566        C567   1.400       .  A
C567        C568   1.394       .  A
C567        F574   1.358       .  S
C568        C569   1.416       .  A
C568        F573   1.359       .  S
C569        C570   1.405       .  A
C570        F571   1.357       .  S
C575        C576   1.412       .  A
C575        C580   1.412       .  A
C575        F582   1.357       .  S
C576        C577   1.422       .  A
C577        C578   1.396       .  A
C577        F584   1.358       .  S
C578        C579   1.398       .  A
C578        F583   1.358       .  S
C579        C580   1.410       .  A
C580        F581   1.358       .  S
C585        C586   1.407       .  A
C585        C590   1.403       .  A
C585        F592   1.357       .  S
C586        C587   1.418       .  A
C587        C588   1.397       .  A
C587        F594   1.358       .  S
C588        C589   1.400       .  A
C588        F593   1.358       .  S
C589        C590   1.411       .  A
C590        F591   1.358       .  S
C595        C596   1.406       .  A
C595        C600   1.405       .  A
C595        F602   1.357       .  S
C596        C597   1.400       .  A
C597        C598   1.395       .  A
C597        F604   1.358       .  S
C598        C599   1.412       .  A
C598        F603   1.359       .  S
C599        C600   1.407       .  A
C600        F601   1.357       .  S
C605        C606   1.399       .  A
C605        C610   1.391       .  A
C605        F612   1.359       .  S
C606        C607   1.406       .  A
C607        C608   1.405       .  A
C607        F614   1.358       .  S
C608        C609   1.410       .  A
C608        F613   1.357       .  S
C609        C610   1.414       .  A
C610        F611   1.359       .  S
C615        C616   1.402       .  A
C615        C620   1.400       .  A
C615        F622   1.358       .  S
C616        C617   1.411       .  A
C617        C618   1.401       .  A
C617        F624   1.358       .  S
C618        C619   1.404       .  A
C618        F623   1.358       .  S
C619        C620   1.413       .  A
C620        F621   1.358       .  S
C625        C626   1.416       .  A
C625        C630   1.395       .  A
C625        F632   1.358       .  S
C626        C627   1.406       .  A
C627        C628   1.405       .  A
C627        F634   1.357       .  S
C628        C629   1.413       .  A
C628        F633   1.358       .  S
C629        C630   1.401       .  A
C630        F631   1.358       .  S
C635        C636   1.414       .  A
C635        C640   1.400       .  A
C635        F642   1.358       .  S
C636        C637   1.403       .  A
C637        C638   1.400       .  A
C637        F644   1.357       .  S
C638        C639   1.414       .  A
C638        F643   1.358       .  S
C639        C640   1.403       .  A
C640        F641   1.358       .  S
C645        C646   1.410       .  A
C645        C650   1.396       .  A
C645        F652   1.359       .  S
C646        C647   1.404       .  A
C647        C648   1.399       .  A
C647        F654   1.358       .  S
C648        C649   1.408       .  A
C648        F653   1.358       .  S
C649        C650   1.402       .  A
C650        F651   1.354       .  S
C655        C656   1.411       .  A
C655        C660   1.396       .  A
C655        F662   1.358       .  S
C656        C657   1.410       .  A
C657        C658   1.401       .  A
C657        F664   1.358       .  S
C658        C659   1.403       .  A
C658        F663   1.358       .  S
C659        C660   1.400       .  A
C660       F1545   1.357       .  S
F661       C1544   1.356       .  S
C665        C666   1.401       .  A
C665        C670   1.394       .  A
C665        F672   1.358       .  S
C666        C667   1.402       .  A
C667        C668   1.394       .  A
C667        F674   1.356       .  S
C668        C669   1.407       .  A
C668        F673   1.358       .  S
C669        C670   1.406       .  A
C670        F671   1.358       .  S
C675        C676   1.408       .  A
C675        C680   1.393       .  A
C675        F682   1.354       .  S
C676        C677   1.420       .  A
C677        C678   1.401       .  A
C677        F684   1.357       .  S
C678        C679   1.404       .  A
C678        F683   1.358       .  S
C679        C680   1.406       .  A
C680        F681   1.357       .  S
C685        C686   1.404       .  A
C685        C690   1.400       .  A
C685        F692   1.358       .  S
C686        C687   1.403       .  A
C687        C688   1.396       .  A
C687        F694   1.355       .  S
C688        C689   1.408       .  A
C688        F693   1.358       .  S
C689        C690   1.408       .  A
C690        F691   1.358       .  S
C695        C696   1.401       .  A
C695        C700   1.396       .  A
C695        F702   1.357       .  S
C696        C697   1.400       .  A
C697        C698   1.393       .  A
C697        F704   1.358       .  S
C698        C699   1.409       .  A
C698        F703   1.358       .  S
C699        C700   1.410       .  A
C700        F701   1.358       .  S
C705        C706   1.408       .  A
C705        C710   1.400       .  A
C705        F712   1.358       .  S
C706        C707   1.407       .  A
C707        C708   1.391       .  A
C707        F714   1.358       .  S
C708        C709   1.400       .  A
C708        F713   1.356       .  S
C709        C710   1.404       .  A
C710        F711   1.358       .  S
C715        C716   1.409       .  A
C715        C720   1.393       .  A
C715        F722   1.358       .  S
C716        C717   1.406       .  A
C717        C718   1.398       .  A
C717        F724   1.358       .  S
C718        C719   1.404       .  A
C718        F723   1.357       .  S
C719        C720   1.401       .  A
C720        F721   1.356       .  S
C725        C726   1.405       .  A
C725        C730   1.406       .  A
C725        F732   1.357       .  S
C726        C727   1.402       .  A
C727        C728   1.398       .  A
C727        F734   1.357       .  S
C728        C729   1.411       .  A
C728        F733   1.358       .  S
C729        C730   1.413       .  A
C730        F731   1.358       .  S
C735        C736   1.413       .  A
C735        C740   1.403       .  A
C735        F742   1.358       .  S
C736        C737   1.412       .  A
C737        C738   1.396       .  A
C737        F744   1.357       .  S
C738        C739   1.401       .  A
C738        F743   1.357       .  S
C739        C740   1.404       .  A
C740        F741   1.358       .  S
C745        C746   1.404       .  A
C745        C750   1.400       .  A
C745        F752   1.358       .  S
C746        C747   1.400       .  A
C747        C748   1.396       .  A
C747        F754   1.357       .  S
C748        C749   1.410       .  A
C748        F753   1.358       .  S
C749        C750   1.409       .  A
C750        F751   1.358       .  S
C755        C756   1.403       .  A
C755        C760   1.399       .  A
C755        F762   1.358       .  S
C756        C757   1.406       .  A
C757        C758   1.401       .  A
C757        F764   1.357       .  S
C758        C759   1.406       .  A
C758        F763   1.357       .  S
C759        C760   1.410       .  A
C760        F761   1.358       .  S
C765        C766   1.400       .  A
C765        C770   1.400       .  A
C765        F772   1.358       .  S
C766        C767   1.412       .  A
C767        C768   1.406       .  A
C767        F774   1.358       .  S
C768        C769   1.406       .  A
C768        F773   1.357       .  S
C769        C770   1.418       .  A
C770        F771   1.358       .  S
C775        C776   1.419       .  A
C775        C780   1.397       .  A
C775        F782   1.358       .  S
C776        C777   1.406       .  A
C777        C778   1.400       .  A
C777        F784   1.357       .  S
C778        C779   1.410       .  A
C778        F783   1.358       .  S
C779        C780   1.399       .  A
C780        F781   1.358       .  S
C785        C786   1.413       .  A
C785        C790   1.404       .  A
C785        F792   1.358       .  S
C786        C787   1.401       .  A
C787        C788   1.395       .  A
C787        F794   1.358       .  S
C788        C789   1.415       .  A
C788        F793   1.359       .  S
C789        C790   1.404       .  A
C790        F791   1.357       .  S
C795        C796   1.411       .  A
C795        C800   1.407       .  A
C795        F802   1.358       .  S
C796        C797   1.407       .  A
C797        C798   1.402       .  A
C797        F804   1.358       .  S
C798        C799   1.411       .  A
C798        F803   1.358       .  S
C799        C800   1.408       .  A
C800        F801   1.357       .  S
C805        C806   1.409       .  A
C805        C810   1.399       .  A
C805        F812   1.358       .  S
C806        C807   1.406       .  A
C807        C808   1.404       .  A
C807        F814   1.358       .  S
C808        C809   1.408       .  A
C808        F813   1.358       .  S
C809        C810   1.402       .  A
C810        F811   1.358       .  S
C815        C816   1.402       .  A
C815        C820   1.402       .  A
C815        F822   1.358       .  S
C816        C817   1.405       .  A
C817        C818   1.398       .  A
C817        F824   1.358       .  S
C818        C819   1.405       .  A
C818        F823   1.358       .  S
C819        C820   1.410       .  A
C820        F821   1.357       .  S
C825        C826   1.399       .  A
C825        C830   1.394       .  A
C825        F832   1.358       .  S
C826        C827   1.404       .  A
C827        C828   1.401       .  A
C827        F834   1.358       .  S
C828        C829   1.406       .  A
C828        F833   1.357       .  S
C829        C830   1.407       .  A
C830        F831   1.358       .  S
C835        C836   1.403       .  A
C835        C840   1.404       .  A
C835        F842   1.358       .  S
C836        C837   1.410       .  A
C837        C838   1.400       .  A
C837        F844   1.358       .  S
C838        C839   1.405       .  A
C838        F843   1.358       .  S
C839        C840   1.414       .  A
C840        F841   1.358       .  S
C845        C846   1.408       .  A
C845        C850   1.408       .  A
C845        F852   1.357       .  S
C846        C847   1.417       .  A
C847        C848   1.399       .  A
C847        F854   1.358       .  S
C848        C849   1.402       .  A
C848        F853   1.358       .  S
C849        C850   1.411       .  A
C850        F851   1.357       .  S
C855        C856   1.406       .  A
C855        C860   1.395       .  A
C855        F862   1.358       .  S
C856        C857   1.410       .  A
C857        C858   1.402       .  A
C857        F864   1.358       .  S
C858        C859   1.404       .  A
C858        F863   1.358       .  S
C859        C860   1.407       .  A
C860        F861   1.359       .  S
C865        C866   1.399       .  A
C865        C870   1.396       .  A
C865        F872   1.358       .  S
C866        C867   1.408       .  A
C867        C868   1.399       .  A
C867        F874   1.358       .  S
C868        C869   1.407       .  A
C868        F873   1.357       .  S
C869        C870   1.418       .  A
C870        F871   1.358       .  S
C875        C876   1.419       .  A
C875        C880   1.400       .  A
C875        F882   1.358       .  S
C876        C877   1.406       .  A
C877        C878   1.405       .  A
C877        F884   1.357       .  S
C878        C879   1.412       .  A
C878        F883   1.358       .  S
C879        C880   1.400       .  A
C880        F881   1.358       .  S
O885       Ni891   1.930       .  S
O885        C906   1.273       .  A
O886       Ni909   1.937   1_556  S
O886        C895   1.281       .  A
O887       Ni891   1.885       .  S
O887       Ni909   1.910       .  S
O887       Ni903   1.905       .  S
O887        H910   0.966       .  S
C888        O905   1.276       .  A
C888        O897   1.278       .  A
C888       C1710   1.465       .  S
O889       Ni908   1.913       .  S
O889        C895   1.269       .  A
O890       Ni908   1.912       .  S
O890        C892   1.267   1_556  A
Ni891       O894   1.920       .  S
Ni891       O896   1.893       .  S
C892        O902   1.276       .  A
C892       C1723   1.489       .  S
O893       Ni909   1.927       .  S
O893        C899   1.283       .  A
O894        C899   1.277       .  A
C895       C1760   1.489       .  S
O896        C898   1.266   1_554  A
O897       Ni908   1.916       .  S
C898        O904   1.281       .  A
C898       C1730   1.495       .  S
C899       C1753   1.492       .  S
H900        O901   0.966       .  S
O901       Ni909   1.914   1_556  S
O901       Ni903   1.888   1_556  S
O901       Ni908   1.879       .  S
O902       Ni903   1.939       .  S
Ni903       O907   1.909       .  S
Ni903       O905   1.927   1_554  S
O904       Ni909   1.962   1_556  S
C906        O907   1.268       .  A
C906       C1743   1.478       .  S
O911       Ni917   1.911       .  S
O911        C932   1.267       .  A
O912       Ni935   1.926       .  S
O912        C921   1.271       .  A
O913       Ni917   1.886       .  S
O913       Ni935   1.896       .  S
O913       Ni929   1.918       .  S
O913        H936   0.967       .  S
C914        O931   1.283       .  A
C914        O923   1.276       .  A
C914       C1660   1.492       .  S
O915       Ni934   1.924       .  S
O915        C921   1.268       .  A
O916       Ni934   1.882       .  S
O916        C918   1.264       .  A
Ni917       O920   1.911       .  S
Ni917       O922   1.915       .  S
C918        O928   1.277       .  A
C918       C1673   1.479       .  S
O919       Ni935   1.943       .  S
O919        C925   1.283       .  A
O920        C925   1.277       .  A
C921       C1690   1.478       .  S
O922        C924   1.268       .  A
O923       Ni934   1.918       .  S
C924        O930   1.273       .  A
C924       C1680   1.487       .  S
C925       C1700   1.471       .  S
H926        O927   0.965       .  S
O927       Ni935   1.913       .  S
O927       Ni929   1.918       .  S
O927       Ni934   1.889       .  S
O928       Ni929   1.950       .  S
Ni929       O933   1.948       .  S
Ni929       O931   1.927       .  S
O930       Ni935   1.934       .  S
C932        O933   1.281       .  A
C932       C1653   1.496       .  S
N937        C942   1.350       .  A
N937        H969   1.041       .  S
N938        C945   1.350       .  A
N938        C946   1.352       .  A
N939        C944   1.354       .  A
N939        H970   1.043       .  S
N940        C947   1.350       .  A
N940        C948   1.352       .  A
C941        C949   1.386       .  A
C941        C957   1.411       .  A
C942        C958   1.415       .  A
C942        C950   1.389       .  A
C943        C951   1.386       .  A
C943        C960   1.414       .  A
C944        C959   1.420       .  A
C944        C952   1.388       .  A
C945        C957   1.411       .  A
C945        C953   1.382       .  A
C946        C960   1.416       .  A
C946        C954   1.387       .  A
C947        C955   1.386       .  A
C947        C958   1.415       .  A
C948        C956   1.386       .  A
C948        C959   1.417       .  A
C949        H961   1.082       .  S
C950        H962   1.082       .  S
C951        H963   1.082       .  S
C952        H964   1.082       .  S
C953        C954   1.375       .  A
C953        H965   1.078       .  S
C954        H966   1.081       .  S
C955        C956   1.379       .  A
C955        H967   1.082       .  S
C956        H968   1.081       .  S
C957       C1640   1.486       .  S
C958       C1633   1.493       .  S
C959       C1613   1.508       .  S
C960       C1620   1.499       .  S
N971        C976   1.349       .  A
N971        C975   1.348       .  A
N971       H1003   1.040       .  S
N972        C979   1.351       .  A
N972        C980   1.350       .  A
N973        C978   1.351       .  A
N973        C977   1.351       .  A
N973       H1004   1.040       .  S
N974        C981   1.349       .  A
N974        C982   1.346       .  A
C975        C983   1.387       .  A
C975        C991   1.410       .  A
C976        C992   1.410       .  A
C976        C984   1.387       .  A
C977        C985   1.387       .  A
C977        C994   1.414       .  A
C978        C993   1.413       .  A
C978        C986   1.387       .  A
C979        C991   1.413       .  A
C979        C987   1.386       .  A
C980        C994   1.413       .  A
C980        C988   1.386       .  A
C981        C989   1.385       .  A
C981        C992   1.408       .  A
C982        C990   1.387       .  A
C982        C993   1.408       .  A
C983        C984   1.377       .  A
C983        H995   1.082       .  S
C984        H996   1.083       .  S
C985        C986   1.379       .  A
C985        H997   1.082       .  S
C986        H998   1.082       .  S
C987        C988   1.375       .  A
C987        H999   1.082       .  S
C988       H1000   1.081       .  S
C989        C990   1.373       .  A
C989       H1001   1.081       .  S
C990       H1002   1.081       .  S
C991       C1600   1.487       .  S
C992       C1590   1.486       .  S
C993       C1583   1.483       .  S
C994       C1573   1.490       .  S
N1005      C2778   1.348   1_455  A
N1005      C1009   1.352       .  A
N1005      H1037   1.041       .  S
N1006      C1013   1.352       .  A
N1006      C1014   1.347       .  A
N1007      C2780   1.358   1_455  A
N1007      C1011   1.356       .  A
N1007      H1038   1.030       .  S
N1008      C1015   1.352       .  A
N1008      C1016   1.350       .  A
C1009      C1017   1.388       .  A
C1009      C1025   1.412       .  A
C1010      N2773   1.349       .  A
C1010      C1026   1.405       .  A
C1010      C1018   1.383       .  A
C1011      C1019   1.385       .  A
C1011      C1028   1.425       .  A
C1012      N2775   1.359       .  A
C1012      C1027   1.431       .  A
C1012      C1020   1.390       .  A
C1013      C1025   1.411       .  A
C1013      C1021   1.384       .  A
C1014      C1028   1.414       .  A
C1014      C1022   1.388       .  A
C1015      C1023   1.384       .  A
C1015      C1026   1.412       .  A
C1016      C1024   1.389       .  A
C1016      C1027   1.425       .  A
C1017      C2786   1.375   1_455  A
C1017      H1029   1.082       .  S
C1018      C2785   1.374       .  A
C1018      H1030   1.082       .  S
C1019      C2788   1.368   1_455  A
C1019      H1031   1.081       .  S
C1020      C2787   1.367       .  A
C1020      H1032   1.079       .  S
C1021      C1022   1.371       .  A
C1021      H1033   1.081       .  S
C1022      H1034   1.082       .  S
C1023      C1024   1.368       .  A
C1023      H1035   1.078       .  S
C1024      H1036   1.081       .  S
C1025      C1540   1.492       .  S
C1026      C1530   1.489       .  S
C1027      C1563   1.501       .  S
C1028      C1553   1.488       .  S
C1039      C1650   1.493       .  S
C1039      C2808   1.430       .  A
C1039      C1044   1.408       .  A
C1040      C1520   1.496       .  S
C1040      C2807   1.430   1_455  A
C1040      C1041   1.410       .  A
C1041      C1042   1.396       .  A
C1041      H1046   1.084       .  S
C1042      C1603   1.479       .  S
C1042      C2811   1.406   1_455  A
C1043      C1630   1.477       .  S
C1043      C2810   1.406       .  A
C1043      C1044   1.398       .  A
C1044      H1045   1.085       .  S
C1047      C1670   1.483       .  S
C1047      C1052   1.406       .  A
C1048      C1513   1.484       .  S
C1048      C1049   1.403       .  A
C1049      C1050   1.394       .  A
C1049      H1054   1.085       .  S
C1050      C1550   1.477       .  S
C1051      C1593   1.478       .  S
C1051      C1052   1.395       .  A
C1052      H1053   1.085       .  S
C1055      C1500   1.482       .  S
C1055      C1056   1.419       .  A
C1055      C1060   1.405       .  A
C1056      C1763   1.484       .  S
C1056      C1057   1.401       .  A
C1057      C1058   1.397       .  A
C1057      H1062   1.085       .  S
C1058      C1533   1.478       .  S
C1058      C1059   1.414       .  A
C1059      C1623   1.480       .  S
C1059      C1060   1.399       .  A
C1060      H1061   1.085       .  S
C1063      C1490   1.480       .  S
C1063      C1064   1.407       .  A
C1063      C1068   1.403       .  A
C1064      C1703   1.485       .  S
C1064      C1065   1.403       .  A
C1065      C1066   1.408       .  A
C1065      H1070   1.083       .  S
C1066      C1560   1.503       .  S
C1066      C1067   1.428       .  A
C1067      C1643   1.490       .  S
C1067      C1068   1.404       .  A
C1068      H1069   1.085       .  S
C1071      C1480   1.480       .  S
C1071      C1076   1.408       .  A
C1072      C1713   1.471       .  S
C1072      C1073   1.399       .  A
C1073      C1074   1.393       .  A
C1073      H1078   1.085       .  S
C1074      C1580   1.474       .  S
C1075      C1543   1.480       .  S
C1075      C1076   1.400       .  A
C1076      H1077   1.085       .  S
C1079      C1473   1.488       .  S
C1079      C2848   1.422   1_455  A
C1079      C1084   1.401       .  A
C1080      C1733   1.493       .  S
C1080      C2847   1.422       .  A
C1080      C1081   1.414       .  A
C1081      C1082   1.409       .  A
C1081      H1086   1.084       .  S
C1082      C1610   1.487       .  S
C1082      C2851   1.413       .  A
C1083      C1570   1.481       .  S
C1083      C2850   1.413   1_455  A
C1083      C1084   1.397       .  A
C1084      H1085   1.085       .  S
O1087     Ni1093   1.905       .  S
O1087      C1108   1.263       .  A
O1088     Ni1111   1.948       .  S
O1088      C1097   1.282       .  A
O1089     Ni1093   1.873       .  S
O1089     Ni1111   1.905       .  S
O1089     Ni1105   1.919       .  S
O1089      H1112   0.968       .  S
C1090      O1107   1.283       .  A
C1090      O1099   1.281       .  A
C1090      C1443   1.473       .  S
O1091     Ni1110   1.906       .  S
O1091      C1097   1.264       .  A
O1092     Ni1110   1.893       .  S
O1092      C1094   1.263       .  A
Ni1093     O1096   1.901       .  S
Ni1093     O1098   1.888       .  S
C1094      O1104   1.276       .  A
C1094      C1523   1.488       .  S
O1095     Ni1111   1.948       .  S
O1095      C1101   1.288       .  A
O1096      C1101   1.276       .  A
C1097      C1453   1.489       .  S
O1098      C1100   1.264       .  A
O1099     Ni1110   1.917       .  S
C1100      O1106   1.283       .  A
C1100      C1460   1.507       .  S
C1101      C1510   1.487       .  S
H1102      O1103   0.965       .  S
O1103     Ni1111   1.930       .  S
O1103     Ni1105   1.893       .  S
O1103     Ni1110   1.877       .  S
O1104     Ni1105   1.948       .  S
Ni1105     O1109   1.930       .  S
Ni1105     O1107   1.937       .  S
O1106     Ni1111   1.967       .  S
C1108      O1109   1.271       .  A
C1108      C1493   1.486       .  S
O1113     Ni1119   1.914       .  S
O1113      C1134   1.268       .  A
O1114     Ni1137   1.912       .  S
O1114      C1123   1.268       .  A
O1115     Ni1119   1.885       .  S
O1115     Ni1137   1.892   1_554  S
O1115     Ni1131   1.922   1_554  S
O1115      H1138   0.966       .  S
C1116      O1133   1.285       .  A
C1116      O1125   1.277       .  A
C1116      C1470   1.496       .  S
O1117     Ni1136   1.927       .  S
O1117      C1123   1.270       .  A
O1118     Ni1136   1.891       .  S
O1118      C1120   1.265   1_556  A
Ni1119     O1122   1.921       .  S
Ni1119     O1124   1.897       .  S
C1120      O1130   1.278       .  A
C1120      C1420   1.497       .  S
O1121     Ni1137   1.925   1_554  S
O1121      C1127   1.277       .  A
O1122      C1127   1.279       .  A
C1123      C1483   1.471       .  S
O1124      C1126   1.265   1_554  A
O1125     Ni1136   1.917       .  S
C1126      O1132   1.275       .  A
C1126      C1503   1.479       .  S
C1127      C1430   1.465       .  S
H1128      O1129   0.966       .  S
O1129     Ni1137   1.906       .  S
O1129     Ni1131   1.909       .  S
O1129     Ni1136   1.890       .  S
O1130     Ni1131   1.952   1_554  S
Ni1131     O1135   1.940   1_556  S
Ni1131     O1133   1.938       .  S
O1132     Ni1137   1.938       .  S
C1134      O1135   1.280       .  A
C1134      C1410   1.492       .  S
N1139      C2912   1.356       .  A
N1139      C1143   1.358       .  A
N1139      H1171   1.038       .  S
N1140      C1147   1.354       .  A
N1140      C1148   1.355       .  A
N1141      C2914   1.352       .  A
N1141      C1145   1.348       .  A
N1141      H1172   1.041       .  S
N1142      C1149   1.347       .  A
N1142      C1150   1.351       .  A
C1143      C1151   1.391       .  A
C1143      C1159   1.427       .  A
C1144      N2907   1.356   1_455  A
C1144      C1160   1.420       .  A
C1144      C1152   1.383   1_455  A
C1145      C1153   1.386       .  A
C1145      C1162   1.408       .  A
C1146      N2909   1.352   1_455  A
C1146      C1161   1.412       .  A
C1146      C1154   1.387       .  A
C1147      C1159   1.422       .  A
C1147      C1155   1.386       .  A
C1148      C1162   1.419       .  A
C1148      C1156   1.386       .  A
C1149      C1157   1.386       .  A
C1149      C1160   1.411       .  A
C1150      C1158   1.384       .  A
C1150      C1161   1.411       .  A
C1151      C2920   1.370       .  A
C1151      H1163   1.077       .  S
C1152      C2919   1.370       .  A
C1152      H1164   1.082   1_655  S
C1153      C2922   1.378       .  A
C1153      H1165   1.082       .  S
C1154      C2921   1.378   1_455  A
C1154      H1166   1.082       .  S
C1155      C1156   1.363       .  A
C1155      H1167   1.079       .  S
C1156      H1168   1.079       .  S
C1157      C1158   1.373       .  A
C1157      H1169   1.080       .  S
C1158      H1170   1.080       .  S
C1159      C1380   1.502       .  S
C1160      C1400   1.494       .  S
C1161      C1390   1.493       .  S
C1162      C1373   1.494       .  S
N1173      C1178   1.358       .  A
N1173      C1177   1.359       .  A
N1173      H1205   1.040       .  S
N1174      C1181   1.348       .  A
N1174      C1182   1.350       .  A
N1175      C1180   1.350       .  A
N1175      C1179   1.353       .  A
N1175      H1206   1.042       .  S
N1176      C1183   1.354       .  A
N1176      C1184   1.354       .  A
C1177      C1185   1.385       .  A
C1177      C1193   1.425       .  A
C1178      C1194   1.428       .  A
C1178      C1186   1.390       .  A
C1179      C1187   1.388       .  A
C1179      C1196   1.416       .  A
C1180      C1195   1.407       .  A
C1180      C1188   1.386       .  A
C1181      C1193   1.409       .  A
C1181      C1189   1.385       .  A
C1182      C1196   1.413       .  A
C1182      C1190   1.387       .  A
C1183      C1191   1.388       .  A
C1183      C1194   1.420       .  A
C1184      C1192   1.385       .  A
C1184      C1195   1.417       .  A
C1185      C1186   1.371       .  A
C1185      H1197   1.081       .  S
C1186      H1198   1.079       .  S
C1187      C1188   1.375       .  A
C1187      H1199   1.082       .  S
C1188      H1200   1.081       .  S
C1189      C1190   1.376       .  A
C1189      H1201   1.082       .  S
C1190      H1202   1.082       .  S
C1191      C1192   1.375       .  A
C1191      H1203   1.081       .  S
C1192      H1204   1.082       .  S
C1193      C1330   1.504       .  S
C1194      C1350   1.503       .  S
C1195      C1363   1.486       .  S
C1196      C1340   1.498       .  S
C1207      C1663   1.482       .  S
C1207      C1212   1.395       .  A
C1208      C1463   1.499       .  S
C1208      C1209   1.416       .  A
C1209      C1210   1.418       .  A
C1209      H1214   1.084       .  S
C1210      C1353   1.506       .  S
C1211      C1370   1.473       .  S
C1211      C1212   1.389       .  A
C1212      H1213   1.086       .  S
N1215      C1219   1.352       .  A
N1215      H1247   1.040       .  S
N1216      C1223   1.349       .  A
N1216      C1224   1.353       .  A
N1217      C1221   1.352       .  A
N1217      H1248   1.041       .  S
N1218      C1225   1.352       .  A
N1218      C1226   1.353       .  A
C1219      C1227   1.387       .  A
C1219      C1235   1.415       .  A
C1220      C1236   1.421       .  A
C1220      C1228   1.388       .  A
C1221      C1229   1.386       .  A
C1221      C1238   1.411       .  A
C1222      C1237   1.413       .  A
C1222      C1230   1.387       .  A
C1223      C1235   1.414       .  A
C1223      C1231   1.387       .  A
C1224      C1238   1.413       .  A
C1224      C1232   1.384       .  A
C1225      C1233   1.385       .  A
C1225      C1236   1.415       .  A
C1226      C1234   1.385       .  A
C1226      C1237   1.416       .  A
C1227      H1239   1.082       .  S
C1228      H1240   1.082       .  S
C1229      H1241   1.082       .  S
C1230      H1242   1.082       .  S
C1231      C1232   1.377       .  A
C1231      H1243   1.081       .  S
C1232      H1244   1.081       .  S
C1233      C1234   1.374       .  A
C1233      H1245   1.081       .  S
C1234      H1246   1.079       .  S
C1235      C1293   1.484       .  S
C1236      C1310   1.504       .  S
C1237      C1320   1.498       .  S
C1238      C1303   1.491       .  S
C1249      C1740   1.485       .  S
C1249      C1254   1.405       .  A
C1250      C1433   1.482       .  S
C1250      C1251   1.400       .  A
C1251      C1252   1.402       .  A
C1251      H1256   1.085       .  S
C1252      C1360   1.490       .  S
C1253      C1383   1.503       .  S
C1253      C1254   1.408       .  A
C1254      H1255   1.082       .  S
C1257      C1440   1.489       .  S
C1257      C1258   1.416       .  A
C1257      C1262   1.405       .  A
C1258      C1693   1.482       .  S
C1258      C1259   1.411       .  A
C1259      C1260   1.405       .  A
C1259      H1264   1.084       .  S
C1260      C1313   1.489       .  S
C1260      C1261   1.413       .  A
C1261      C1393   1.479       .  S
C1261      C1262   1.399       .  A
C1262      H1263   1.085       .  S
C1265      C1720   1.491       .  S
C1265      C1266   1.426       .  A
C1265      C1270   1.410       .  A
C1266      C1413   1.492       .  S
C1266      C1267   1.407       .  A
C1267      C1268   1.397       .  A
C1267      H1272   1.085       .  S
C1268      C1403   1.476       .  S
C1268      C1269   1.408       .  A
C1269      C1323   1.481       .  S
C1269      C1270   1.398       .  A
C1270      H1271   1.085       .  S
C1273      C1683   1.497       .  S
C1273      C3042   1.423       .  A
C1273      C1278   1.412       .  A
C1274      C1450   1.491       .  S
C1274      C3041   1.423   1_455  A
C1274      C1275   1.402       .  A
C1275      C1276   1.400       .  A
C1275      H1280   1.085       .  S
C1276      C1290   1.484       .  S
C1276      C3045   1.421   1_455  A
C1277      C1333   1.503       .  S
C1277      C3044   1.421       .  A
C1277      C1278   1.408       .  A
C1278      H1279   1.083       .  S
C1281      C1423   1.483       .  S
C1281      C3050   1.414   1_455  A
C1281      C1286   1.407       .  A
C1282      C1750   1.482       .  S
C1282      C3049   1.414       .  A
C1282      C1283   1.399       .  A
C1283      C1284   1.398       .  A
C1283      H1288   1.085       .  S
C1284      C1343   1.491       .  S
C1284      C3053   1.421       .  A
C1285      C1300   1.490       .  S
C1285      C3052   1.421   1_455  A
C1285      C1286   1.408       .  A
C1286      H1287   1.084       .  S
C1289      C1290   1.408       .  A
C1289      C1294   1.397       .  A
C1289      F1296   1.358       .  S
C1290      C1291   1.405       .  A
C1291      C1292   1.401       .  A
C1291      F3066   1.358   1_455  S
C1292      C1293   1.406       .  A
C1292      F1297   1.358       .  S
C1293      C1294   1.402       .  A
C1294      F1295   1.358       .  S
F1298      C3059   1.358       .  S
C1299      C1300   1.408       .  A
C1299      C1304   1.404       .  A
C1299      F1306   1.358       .  S
C1300      C1301   1.406       .  A
C1301      C1302   1.398       .  A
C1301      F3076   1.358       .  S
C1302      C1303   1.406       .  A
C1302      F3075   1.358       .  S
C1303      C1304   1.406       .  A
C1304      F1305   1.357       .  S
F1307      C3070   1.358       .  S
F1308      C3069   1.358       .  S
C1309      C1310   1.413       .  A
C1309      C1314   1.404       .  A
C1309      F1316   1.358       .  S
C1310      C1311   1.409       .  A
C1311      C1312   1.400       .  A
C1311      F1318   1.358       .  S
C1312      C1313   1.405       .  A
C1312      F1317   1.356       .  S
C1313      C1314   1.403       .  A
C1314      F1315   1.357       .  S
C1319      C1320   1.411       .  A
C1319      C1324   1.395       .  A
C1319      F1326   1.358       .  S
C1320      C1321   1.410       .  A
C1321      C1322   1.403       .  A
C1321      F1328   1.358       .  S
C1322      C1323   1.405       .  A
C1322      F1327   1.357       .  S
C1323      C1324   1.400       .  A
C1324      F1325   1.356       .  S
C1329      C1330   1.410       .  A
C1329      C1334   1.400       .  A
C1329      F1336   1.357       .  S
C1330      C1331   1.407       .  A
C1331      C1332   1.401       .  A
C1331      F1338   1.358       .  S
C1332      C1333   1.412       .  A
C1332      F1337   1.357       .  S
C1333      C1334   1.410       .  A
C1334      F3103   1.357       .  S
F1335      C3102   1.357       .  S
C1339      C1340   1.409       .  A
C1339      C1344   1.394       .  A
C1339      F1346   1.357       .  S
C1340      C1341   1.410       .  A
C1341      C1342   1.399       .  A
C1341      F1348   1.359       .  S
C1342      C1343   1.409       .  A
C1342      F1347   1.358       .  S
C1343      C1344   1.404       .  A
C1344      F3113   1.356       .  S
F1345      C3112   1.357       .  S
C1349      C1350   1.404       .  A
C1349      C1354   1.397       .  A
C1349      F1356   1.359       .  S
C1350      C1351   1.409       .  A
C1351      C1352   1.409       .  A
C1351      F1358   1.357       .  S
C1352      C1353   1.411       .  A
C1352      F1357   1.357       .  S
C1353      C1354   1.409       .  A
C1354      F1355   1.349       .  S
C1359      C1360   1.409       .  A
C1359      C1364   1.403       .  A
C1359      F1366   1.358   1_565  S
C1360      C1361   1.409       .  A
C1361      C1362   1.395       .  A
C1361      F1368   1.358       .  S
C1362      C1363   1.402       .  A
C1362      F1367   1.358       .  S
C1363      C1364   1.406       .  A
C1364      F1365   1.357       .  S
C1369      C1370   1.403       .  A
C1369      C1374   1.397       .  A
C1369      F1376   1.358       .  S
C1370      C1371   1.401       .  A
C1371      C1372   1.393       .  A
C1371      F1378   1.358       .  S
C1372      C1373   1.412       .  A
C1372      F1377   1.358       .  S
C1373      C1374   1.408       .  A
C1374      F1375   1.358       .  S
C1379      C1380   1.408       .  A
C1379      C1384   1.403       .  A
C1379      F1386   1.358       .  S
C1380      C1381   1.408       .  A
C1381      C1382   1.393       .  A
C1381      F1388   1.357       .  S
C1382      C1383   1.405       .  A
C1383      C1384   1.415       .  A
C1384      F1385   1.357       .  S
C1389      C1390   1.408       .  A
C1389      C1394   1.395       .  A
C1389      F1396   1.358       .  S
C1390      C1391   1.409       .  A
C1391      C1392   1.401       .  A
C1391      F1398   1.358       .  S
C1392      C1393   1.404       .  A
C1392      F1397   1.358       .  S
C1393      C1394   1.402       .  A
C1394      F1395   1.356       .  S
C1399      C1400   1.410       .  A
C1399      C1404   1.398       .  A
C1399      F1406   1.358       .  S
C1400      C1401   1.408       .  A
C1401      C1402   1.396       .  A
C1401      F1408   1.358       .  S
C1402      C1403   1.402       .  A
C1402      F1407   1.356       .  S
C1403      C1404   1.402       .  A
C1404      F1405   1.358       .  S
C1409      C1410   1.406       .  A
C1409      C1414   1.406       .  A
C1409      F1416   1.358       .  S
C1410      C1411   1.416       .  A
C1411      C1412   1.397       .  A
C1411      F1418   1.358       .  S
C1412      C1413   1.402       .  A
C1412      F1417   1.357       .  S
C1413      C1414   1.414       .  A
C1414      F1415   1.358       .  S
C1419      C1420   1.419       .  A
C1419      C1424   1.396       .  A
C1419      F1426   1.358       .  S
C1420      C1421   1.412       .  A
C1421      C1422   1.405       .  A
C1421      F1428   1.357       .  S
C1422      C1423   1.406       .  A
C1422      F1427   1.358       .  S
C1423      C1424   1.398       .  A
C1424      F1425   1.358       .  S
C1429      C1430   1.403       .  A
C1429      C1434   1.400       .  A
C1429      F1436   1.358       .  S
C1430      C1431   1.401       .  A
C1431      C1432   1.397       .  A
C1431      F1438   1.358       .  S
C1432      C1433   1.406       .  A
C1432      F1437   1.358       .  S
C1433      C1434   1.409       .  A
C1434      F1435   1.358       .  S
C1439      C1440   1.409       .  A
C1439      C1444   1.407       .  A
C1439      F1446   1.357       .  S
C1440      C1441   1.407       .  A
C1441      C1442   1.394       .  A
C1441      F1448   1.358       .  S
C1442      C1443   1.402       .  A
C1442      F1447   1.358       .  S
C1443      C1444   1.406       .  A
C1444      F1445   1.358       .  S
C1449      C1450   1.415       .  A
C1449      C1454   1.408       .  A
C1449      F1456   1.358       .  S
C1450      C1451   1.400       .  A
C1451      C1452   1.394       .  A
C1451      F1458   1.358       .  S
C1452      C1453   1.415       .  A
C1452      F1457   1.359       .  S
C1453      C1454   1.405       .  A
C1454      F1455   1.357       .  S
C1459      C1460   1.411       .  A
C1459      C1464   1.412       .  A
C1459      F1466   1.357       .  S
C1460      C1461   1.421       .  A
C1461      C1462   1.398       .  A
C1461      F1468   1.358       .  S
C1462      C1463   1.400       .  A
C1462      F1467   1.358       .  S
C1463      C1464   1.412       .  A
C1464      F1465   1.357       .  S
C1469      C1470   1.409       .  A
C1469      C1474   1.402       .  A
C1469      F1476   1.357       .  S
C1470      C1471   1.419       .  A
C1471      C1472   1.399       .  A
C1471      F1478   1.358       .  S
C1472      C1473   1.400       .  A
C1472      F1477   1.358       .  S
C1473      C1474   1.409       .  A
C1474      F1475   1.358       .  S
C1479      C1480   1.408       .  A
C1479      C1484   1.399       .  A
C1479      F1486   1.358       .  S
C1480      C1481   1.403       .  A
C1481      C1482   1.397       .  A
C1481      F1488   1.358       .  S
C1482      C1483   1.407       .  A
C1482      F1487   1.358       .  S
C1483      C1484   1.402       .  A
C1484      F1485   1.358       .  S
C1489      C1490   1.399       .  A
C1489      C1494   1.390       .  A
C1489      F1496   1.359       .  S
C1490      C1491   1.407       .  A
C1491      C1492   1.405       .  A
C1491      F1498   1.358       .  S
C1492      C1493   1.409       .  A
C1492      F1497   1.357       .  S
C1493      C1494   1.414       .  A
C1494      F1495   1.358       .  S
C1499      C1500   1.401       .  A
C1499      C1504   1.398       .  A
C1499      F1506   1.358       .  S
C1500      C1501   1.409       .  A
C1501      C1502   1.400       .  A
C1501      F1508   1.358       .  S
C1502      C1503   1.404       .  A
C1502      F1507   1.358       .  S
C1503      C1504   1.411       .  A
C1504      F1505   1.358       .  S
C1509      C1510   1.417       .  A
C1509      C1514   1.393       .  A
C1509      F1516   1.358       .  S
C1510      C1511   1.406       .  A
C1511      C1512   1.403       .  A
C1511      F1518   1.358       .  S
C1512      C1513   1.412       .  A
C1512      F1517   1.358       .  S
C1513      C1514   1.398       .  A
C1514      F1515   1.358       .  S
C1519      C1520   1.415       .  A
C1519      C1524   1.401       .  A
C1519      F1526   1.358       .  S
C1520      C1521   1.404       .  A
C1521      C1522   1.401       .  A
C1521      F1528   1.357       .  S
C1522      C1523   1.414       .  A
C1522      F1527   1.358       .  S
C1523      C1524   1.404       .  A
C1524      F1525   1.358       .  S
C1529      C1530   1.410       .  A
C1529      C1534   1.394       .  A
C1529      F1536   1.358       .  S
C1530      C1531   1.405       .  A
C1531      C1532   1.399       .  A
C1531      F1538   1.358       .  S
C1532      C1533   1.408       .  A
C1532      F1537   1.358       .  S
C1533      C1534   1.400       .  A
C1534      F1535   1.355       .  S
C1539      C1540   1.408       .  A
C1539      C1544   1.395       .  A
C1539      F1546   1.358       .  S
C1540      C1541   1.409       .  A
C1541      C1542   1.401       .  A
C1541      F1548   1.357       .  S
C1542      C1543   1.404       .  A
C1542      F1547   1.357       .  S
C1543      C1544   1.403       .  A
C1549      C1550   1.404       .  A
C1549      C1554   1.396       .  A
C1549      F1556   1.358       .  S
C1550      C1551   1.403       .  A
C1551      C1552   1.394       .  A
C1551      F1558   1.354       .  S
C1552      C1553   1.406       .  A
C1552      F1557   1.358       .  S
C1553      C1554   1.407       .  A
C1554      F1555   1.358       .  S
C1559      C1560   1.408       .  A
C1559      C1564   1.394       .  A
C1559      F1566   1.355       .  S
C1560      C1561   1.417       .  A
C1561      C1562   1.400       .  A
C1561      F1568   1.358       .  S
C1562      C1563   1.405       .  A
C1562      F1567   1.359       .  S
C1563      C1564   1.407       .  A
C1564      F1565   1.356       .  S
C1569      C1570   1.405       .  A
C1569      C1574   1.399       .  A
C1569      F1576   1.358       .  S
C1570      C1571   1.403       .  A
C1571      C1572   1.397       .  A
C1571      F1578   1.356       .  S
C1572      C1573   1.408       .  A
C1572      F1577   1.358       .  S
C1573      C1574   1.406       .  A
C1574      F1575   1.358       .  S
C1579      C1580   1.403       .  A
C1579      C1584   1.395       .  A
C1579      F1586   1.356       .  S
C1580      C1581   1.403       .  A
C1581      C1582   1.395       .  A
C1581      F1588   1.358       .  S
C1582      C1583   1.406       .  A
C1582      F1587   1.358       .  S
C1583      C1584   1.406       .  A
C1584      F1585   1.358       .  S
C1589      C1590   1.407       .  A
C1589      C1594   1.401       .  A
C1589      F1596   1.358       .  S
C1590      C1591   1.406       .  A
C1591      C1592   1.391       .  A
C1591      F1598   1.358       .  S
C1592      C1593   1.401       .  A
C1592      F1597   1.355       .  S
C1593      C1594   1.406       .  A
C1594      F1595   1.357       .  S
C1599      C1600   1.408       .  A
C1599      C1604   1.394       .  A
C1599      F1606   1.358       .  S
C1600      C1601   1.405       .  A
C1601      C1602   1.400       .  A
C1601      F1608   1.357       .  S
C1602      C1603   1.405       .  A
C1602      F1607   1.357       .  S
C1603      C1604   1.402       .  A
C1604      F1605   1.356       .  S
C1609      C1610   1.403       .  A
C1609      C1614   1.404       .  A
C1609      F1616   1.357       .  S
C1610      C1611   1.403       .  A
C1611      C1612   1.401       .  A
C1611      F1618   1.358       .  S
C1612      C1613   1.413       .  A
C1612      F1617   1.358       .  S
C1613      C1614   1.414       .  A
C1614      F1615   1.357       .  S
C1619      C1620   1.411       .  A
C1619      C1624   1.403       .  A
C1619      F1626   1.358       .  S
C1620      C1621   1.411       .  A
C1621      C1622   1.396       .  A
C1621      F1628   1.358       .  S
C1622      C1623   1.401       .  A
C1622      F1627   1.357       .  S
C1623      C1624   1.404       .  A
C1624      F1625   1.358       .  S
C1629      C1630   1.403       .  A
C1629      C1634   1.400       .  A
C1629      F1636   1.358       .  S
C1630      C1631   1.400       .  A
C1631      C1632   1.395       .  A
C1631      F1638   1.357       .  S
C1632      C1633   1.410       .  A
C1632      F1637   1.358       .  S
C1633      C1634   1.409       .  A
C1634      F1635   1.358       .  S
C1639      C1640   1.403       .  A
C1639      C1644   1.399       .  A
C1639      F1646   1.358       .  S
C1640      C1641   1.405       .  A
C1641      C1642   1.401       .  A
C1641      F1648   1.357       .  S
C1642      C1643   1.407       .  A
C1642      F1647   1.357       .  S
C1643      C1644   1.410       .  A
C1644      F1645   1.358       .  S
C1649      C1650   1.401       .  A
C1649      C1654   1.399       .  A
C1649      F1656   1.358       .  S
C1650      C1651   1.414       .  A
C1651      C1652   1.407       .  A
C1651      F1658   1.358       .  S
C1652      C1653   1.406       .  A
C1652      F1657   1.357       .  S
C1653      C1654   1.417       .  A
C1654      F1655   1.358       .  S
C1659      C1660   1.419       .  A
C1659      C1664   1.396       .  A
C1659      F1666   1.358       .  S
C1660      C1661   1.407       .  A
C1661      C1662   1.400       .  A
C1661      F1668   1.357       .  S
C1662      C1663   1.410       .  A
C1662      F1667   1.358       .  S
C1663      C1664   1.399       .  A
C1664      F1665   1.358       .  S
C1669      C1670   1.413       .  A
C1669      C1674   1.402       .  A
C1669      F1676   1.358       .  S
C1670      C1671   1.400       .  A
C1671      C1672   1.391       .  A
C1671      F1678   1.358       .  S
C1672      C1673   1.413       .  A
C1672      F1677   1.359       .  S
C1673      C1674   1.403       .  A
C1674      F1675   1.358       .  S
C1679      C1680   1.410       .  A
C1679      C1684   1.405       .  A
C1679      F1686   1.358       .  S
C1680      C1681   1.406       .  A
C1681      C1682   1.401       .  A
C1681      F1688   1.358       .  S
C1682      C1683   1.410       .  A
C1682      F1687   1.358       .  S
C1683      C1684   1.408       .  A
C1684      F1685   1.357       .  S
C1689      C1690   1.409       .  A
C1689      C1694   1.399       .  A
C1689      F1696   1.358       .  S
C1690      C1691   1.405       .  A
C1691      C1692   1.403       .  A
C1691      F1698   1.358       .  S
C1692      C1693   1.407       .  A
C1692      F1697   1.358       .  S
C1693      C1694   1.403       .  A
C1694      F1695   1.358       .  S
C1699      C1700   1.403       .  A
C1699      C1704   1.402       .  A
C1699      F1706   1.358       .  S
C1700      C1701   1.405       .  A
C1701      C1702   1.397       .  A
C1701      F1708   1.358       .  S
C1702      C1703   1.405       .  A
C1702      F1707   1.358       .  S
C1703      C1704   1.410       .  A
C1704      F1705   1.357       .  S
C1709      C1710   1.404       .  A
C1709      C1714   1.400       .  A
C1709      F1716   1.358       .  S
C1710      C1711   1.402       .  A
C1711      C1712   1.394       .  A
C1711      F1718   1.358       .  S
C1712      C1713   1.404       .  A
C1712      F1717   1.358       .  S
C1713      C1714   1.405       .  A
C1714      F1715   1.357       .  S
C1719      C1720   1.404       .  A
C1719      C1724   1.404       .  A
C1719      F1726   1.358       .  S
C1720      C1721   1.409       .  A
C1721      C1722   1.400       .  A
C1721      F1728   1.358       .  S
C1722      C1723   1.406       .  A
C1722      F1727   1.358       .  S
C1723      C1724   1.413       .  A
C1724      F1725   1.358       .  S
C1729      C1730   1.409       .  A
C1729      C1734   1.409       .  A
C1729      F1736   1.357       .  S
C1730      C1731   1.415       .  A
C1731      C1732   1.397       .  A
C1731      F1738   1.358       .  S
C1732      C1733   1.401       .  A
C1732      F1737   1.358       .  S
C1733      C1734   1.411       .  A
C1734      F1735   1.357       .  S
C1739      C1740   1.404       .  A
C1739      C1744   1.394       .  A
C1739      F1746   1.358       .  S
C1740      C1741   1.409       .  A
C1741      C1742   1.404       .  A
C1741      F1748   1.357       .  S
C1742      C1743   1.405       .  A
C1742      F1747   1.357       .  S
C1743      C1744   1.408       .  A
C1744      F1745   1.359       .  S
C1749      C1750   1.399       .  A
C1749      C1754   1.396       .  A
C1749      F1756   1.358       .  S
C1750      C1751   1.407       .  A
C1751      C1752   1.400       .  A
C1751      F1758   1.358       .  S
C1752      C1753   1.408       .  A
C1752      F1757   1.357       .  S
C1753      C1754   1.418       .  A
C1754      F1755   1.358       .  S
C1759      C1760   1.415       .  A
C1759      C1764   1.396       .  A
C1759      F1766   1.358       .  S
C1760      C1761   1.406       .  A
C1761      C1762   1.404       .  A
C1761      F1768   1.357       .  S
C1762      C1763   1.411       .  A
C1762      F1767   1.358       .  S
C1763      C1764   1.400       .  A
C1764      F1765   1.358       .  S
O1769     Ni1775   1.930       .  S
O1769      C1790   1.272       .  A
O1770     Ni1793   1.949   1_556  S
O1770      C1779   1.284       .  A
O1771     Ni1775   1.891       .  S
O1771     Ni1793   1.912       .  S
O1771     Ni1787   1.905       .  S
O1771      H1794   0.966       .  S
C1772      O1789   1.275       .  A
C1772      O1781   1.278       .  A
C1772      C2594   1.462       .  S
O1773     Ni1792   1.913       .  S
O1773      C1779   1.268       .  A
O1774     Ni1792   1.907       .  S
O1774      C1776   1.266   1_556  A
Ni1775     O1778   1.915       .  S
Ni1775     O1780   1.894       .  S
C1776      O1786   1.277       .  A
C1776      C2607   1.488       .  S
O1777     Ni1793   1.932       .  S
O1777      C1783   1.285       .  A
O1778      C1783   1.277       .  A
C1779      C2644   1.496       .  S
O1780      C1782   1.267   1_554  A
O1781     Ni1792   1.918       .  S
C1782      O1788   1.282       .  A
C1782      C2614   1.498       .  S
C1783      C2637   1.489       .  S
H1784      O1785   0.966       .  S
O1785     Ni1793   1.920   1_556  S
O1785     Ni1787   1.890   1_556  S
O1785     Ni1792   1.886       .  S
O1786     Ni1787   1.943       .  S
Ni1787     O1791   1.910       .  S
Ni1787     O1789   1.921   1_554  S
O1788     Ni1793   1.962   1_556  S
C1790      O1791   1.268       .  A
C1790      C2627   1.477       .  S
O1795     Ni1801   1.912       .  S
O1795      C1816   1.268       .  A
O1796     Ni1819   1.926       .  S
O1796      C1805   1.271       .  A
O1797     Ni1801   1.887       .  S
O1797     Ni1819   1.897       .  S
O1797     Ni1813   1.917       .  S
O1797      H1820   0.967       .  S
C1798      O1815   1.284       .  A
C1798      O1807   1.276       .  A
C1798      C2544   1.493       .  S
O1799     Ni1818   1.925       .  S
O1799      C1805   1.269       .  A
O1800     Ni1818   1.886       .  S
O1800      C1802   1.265       .  A
Ni1801     O1804   1.911       .  S
Ni1801     O1806   1.922       .  S
C1802      O1812   1.280       .  A
C1802      C2557   1.486       .  S
O1803     Ni1819   1.944       .  S
O1803      C1809   1.283       .  A
O1804      C1809   1.276       .  A
C1805      C2574   1.480       .  S
O1806      C1808   1.269       .  A
O1807     Ni1818   1.918       .  S
C1808      O1814   1.273       .  A
C1808      C2564   1.492       .  S
C1809      C2584   1.472       .  S
H1810      O1811   0.965       .  S
O1811     Ni1819   1.914       .  S
O1811     Ni1813   1.920       .  S
O1811     Ni1818   1.890       .  S
O1812     Ni1813   1.959       .  S
Ni1813     O1817   1.951       .  S
Ni1813     O1815   1.929       .  S
O1814     Ni1819   1.936       .  S
C1816      O1817   1.283       .  A
C1816      C2537   1.498       .  S
N1821      C1826   1.351       .  A
N1821      C2709   1.352   1_545  A
N1821      H1853   1.041       .  S
N1822      C1829   1.350       .  A
N1822      C1830   1.352       .  A
N1823      C1828   1.354       .  A
N1823      C2711   1.351   1_545  A
N1823      H1854   1.042       .  S
N1824      C1831   1.351       .  A
N1824      C1832   1.352       .  A
C1825      N2705   1.352       .  A
C1825      C1833   1.385       .  A
C1825      C1841   1.409       .  A
C1826      C1842   1.415       .  A
C1826      C1834   1.388       .  A
C1827      N2707   1.351       .  A
C1827      C1835   1.386       .  A
C1827      C1844   1.415       .  A
C1828      C1843   1.418       .  A
C1828      C1836   1.388       .  A
C1829      C1841   1.410       .  A
C1829      C1837   1.382       .  A
C1830      C1844   1.416       .  A
C1830      C1838   1.388       .  A
C1831      C1839   1.386       .  A
C1831      C1842   1.416       .  A
C1832      C1840   1.384       .  A
C1832      C1843   1.416       .  A
C1833      C2718   1.378       .  A
C1833      H1845   1.082       .  S
C1834      C2717   1.379   1_545  A
C1834      H1846   1.082       .  S
C1835      C2720   1.381       .  A
C1835      H1847   1.082       .  S
C1836      C2719   1.379   1_545  A
C1836      H1848   1.082       .  S
C1837      C1838   1.375       .  A
C1837      H1849   1.080       .  S
C1838      H1850   1.081       .  S
C1839      C1840   1.378       .  A
C1839      H1851   1.081       .  S
C1840      H1852   1.080       .  S
C1841      C2524   1.487       .  S
C1842      C2517   1.495       .  S
C1843      C2497   1.506       .  S
C1844      C2504   1.501       .  S
N1855      C1860   1.349       .  A
N1855      C1859   1.347       .  A
N1855      H1887   1.041       .  S
N1856      C1863   1.349       .  A
N1856      C1864   1.349       .  A
N1857      C1862   1.351       .  A
N1857      C1861   1.351       .  A
N1857      H1888   1.042       .  S
N1858      C1865   1.348       .  A
N1858      C1866   1.345       .  A
C1859      C1867   1.387       .  A
C1859      C1875   1.409       .  A
C1860      C1876   1.410       .  A
C1860      C1868   1.387       .  A
C1861      C1869   1.386       .  A
C1861      C1878   1.412       .  A
C1862      C1877   1.414       .  A
C1862      C1870   1.387       .  A
C1863      C1875   1.412       .  A
C1863      C1871   1.387       .  A
C1864      C1878   1.410       .  A
C1864      C1872   1.384       .  A
C1865      C1873   1.386       .  A
C1865      C1876   1.408       .  A
C1866      C1874   1.387       .  A
C1866      C1877   1.408       .  A
C1867      C1868   1.378       .  A
C1867      H1879   1.082       .  S
C1868      H1880   1.082       .  S
C1869      C1870   1.378       .  A
C1869      H1881   1.082       .  S
C1870      H1882   1.082       .  S
C1871      C1872   1.376       .  A
C1871      H1883   1.081       .  S
C1872      H1884   1.080       .  S
C1873      C1874   1.376       .  A
C1873      H1885   1.082       .  S
C1874      H1886   1.081       .  S
C1875      C2484   1.486       .  S
C1876      C2474   1.485       .  S
C1877      C2467   1.488       .  S
C1878      C2457   1.491       .  S
N1889      C1893   1.351       .  A
N1889      H1921   1.040       .  S
N1890      C1897   1.352       .  A
N1890      C1898   1.347       .  A
N1891      C1895   1.353       .  A
N1891      H1922   1.036       .  S
N1892      C1899   1.355       .  A
N1892      C1900   1.353       .  A
C1893      C1901   1.389       .  A
C1893      C1909   1.414       .  A
C1894      C1910   1.403       .  A
C1894      C1902   1.383       .  A
C1895      C1903   1.385       .  A
C1895      C1912   1.419       .  A
C1896      C1911   1.424       .  A
C1896      C1904   1.390       .  A
C1897      C1909   1.413       .  A
C1897      C1905   1.385       .  A
C1898      C1912   1.410       .  A
C1898      C1906   1.386       .  A
C1899      C1907   1.384       .  A
C1899      C1910   1.414       .  A
C1900      C1908   1.388       .  A
C1900      C1911   1.424       .  A
C1901      H1913   1.082       .  S
C1902      H1914   1.082       .  S
C1903      H1915   1.082       .  S
C1904      H1916   1.077       .  S
C1905      C1906   1.374       .  A
C1905      H1917   1.081       .  S
C1906      H1918   1.082       .  S
C1907      C1908   1.364       .  A
C1907      H1919   1.078       .  S
C1908      H1920   1.081       .  S
C1909      C2424   1.496       .  S
C1910      C2414   1.490       .  S
C1911      C2447   1.500       .  S
C1912      C2437   1.485       .  S
C1923      C2534   1.492       .  S
C1923      C1928   1.407       .  A
C1924      C2404   1.492       .  S
C1924      C1925   1.408       .  A
C1925      C1926   1.396       .  A
C1925      H1930   1.085       .  S
C1926      C2487   1.476       .  S
C1927      C2514   1.478       .  S
C1927      C1928   1.397       .  A
C1928      H1929   1.085       .  S
C1931      C2554   1.489       .  S
C1931      C2816   1.424   1_545  A
C1931      C1936   1.406       .  A
C1932      C2397   1.491       .  S
C1932      C2815   1.425       .  A
C1932      C1933   1.403       .  A
C1933      C1934   1.395       .  A
C1933      H1938   1.085       .  S
C1934      C2434   1.470       .  S
C1934      C2819   1.408       .  A
C1935      C2477   1.473       .  S
C1935      C2818   1.409   1_545  A
C1935      C1936   1.397       .  A
C1936      H1937   1.085       .  S
C1939      C2384   1.487       .  S
C1939      C1940   1.423       .  A
C1939      C1944   1.406       .  A
C1940      C2647   1.490       .  S
C1940      C1941   1.404       .  A
C1941      C1942   1.399       .  A
C1941      H1946   1.085       .  S
C1942      C2417   1.482       .  S
C1942      C1943   1.414       .  A
C1943      C2507   1.480       .  S
C1943      C1944   1.398       .  A
C1944      H1945   1.085       .  S
C1947      C2374   1.480       .  S
C1947      C1948   1.407       .  A
C1947      C1952   1.402       .  A
C1948      C2587   1.487       .  S
C1948      C1949   1.404       .  A
C1949      C1950   1.411       .  A
C1949      H1954   1.082       .  S
C1950      C2444   1.510       .  S
C1950      C1951   1.431       .  A
C1951      C2527   1.489       .  S
C1951      C1952   1.403       .  A
C1952      H1953   1.085       .  S
C1955      C2364   1.477       .  S
C1955      C2840   1.410       .  A
C1955      C1960   1.408       .  A
C1956      C2597   1.477       .  S
C1956      C2839   1.414   1_545  A
C1956      C1957   1.401       .  A
C1957      C1958   1.392       .  A
C1957      H1962   1.085       .  S
C1958      C2464   1.469       .  S
C1958      C2843   1.407   1_545  A
C1959      C2427   1.477       .  S
C1959      C2842   1.409       .  A
C1959      C1960   1.403       .  A
C1960      H1961   1.084       .  S
C1963      C2357   1.489       .  S
C1963      C1968   1.403       .  A
C1964      C2617   1.495       .  S
C1964      C1965   1.414       .  A
C1965      C1966   1.409       .  A
C1965      H1970   1.084       .  S
C1966      C2494   1.487       .  S
C1967      C2454   1.482       .  S
C1967      C1968   1.396       .  A
C1968      H1969   1.085       .  S
O1971     Ni1977   1.909       .  S
O1971      C1992   1.265       .  A
O1972     Ni1995   1.951       .  S
O1972      C1981   1.283       .  A
O1973     Ni1977   1.872       .  S
O1973     Ni1995   1.904       .  S
O1973     Ni1989   1.921       .  S
O1973      H1996   0.968       .  S
C1974      O1991   1.283       .  A
C1974      O1983   1.281       .  A
C1974      C2327   1.474       .  S
O1975     Ni1994   1.904       .  S
O1975      C1981   1.263       .  A
O1976     Ni1994   1.891       .  S
O1976      C1978   1.262       .  A
Ni1977     O1980   1.905       .  S
Ni1977     O1982   1.889       .  S
C1978      O1988   1.276       .  A
C1978      C2407   1.485       .  S
O1979     Ni1995   1.953       .  S
O1979      C1985   1.289       .  A
O1980      C1985   1.277       .  A
C1981      C2337   1.490       .  S
O1982      C1984   1.265       .  A
O1983     Ni1994   1.919       .  S
C1984      O1990   1.283       .  A
C1984      C2344   1.508       .  S
C1985      C2394   1.491       .  S
H1986      O1987   0.965       .  S
O1987     Ni1995   1.933       .  S
O1987     Ni1989   1.891       .  S
O1987     Ni1994   1.877       .  S
O1988     Ni1989   1.945       .  S
Ni1989     O1993   1.929       .  S
Ni1989     O1991   1.939       .  S
O1990     Ni1995   1.969       .  S
C1992      O1993   1.271       .  A
C1992      C2377   1.487       .  S
O1997     Ni2003   1.920       .  S
O1997      C2018   1.270       .  A
O1998     Ni2021   1.923       .  S
O1998      C2007   1.271       .  A
O1999     Ni2003   1.890       .  S
O1999     Ni2021   1.900   1_554  S
O1999     Ni2015   1.924       .  S
O1999      H2022   0.966       .  S
C2000      O2017   1.287       .  A
C2000      O2009   1.275       .  A
C2000      C2354   1.492       .  S
O2001     Ni2020   1.921       .  S
O2001      C2007   1.268       .  A
O2002     Ni2020   1.890       .  S
O2002      C2004   1.265   1_556  A
Ni2003     O2006   1.925       .  S
Ni2003     O2008   1.896       .  S
C2004      O2014   1.277       .  A
C2004      C2304   1.495       .  S
O2005     Ni2021   1.917   1_554  S
O2005      C2011   1.274       .  A
O2006      C2011   1.278       .  A
C2007      C2367   1.484       .  S
O2008      C2010   1.266   1_554  A
O2009     Ni2020   1.906       .  S
C2010      O2016   1.278       .  A
C2010      C2387   1.483       .  S
C2011      C2314   1.466       .  S
H2012      O2013   0.966       .  S
O2013     Ni2021   1.907       .  S
O2013     Ni2015   1.911   1_556  S
O2013     Ni2020   1.889       .  S
O2014     Ni2015   1.948       .  S
Ni2015     O2019   1.942       .  S
Ni2015     O2017   1.945   1_554  S
O2016     Ni2021   1.946       .  S
C2018      O2019   1.280       .  A
C2018      C2294   1.497       .  S
N2023      C2027   1.358       .  A
N2023      H2055   1.038       .  S
N2024      C2031   1.354       .  A
N2024      C2032   1.356       .  A
N2025      C2029   1.348       .  A
N2025      H2056   1.041       .  S
N2026      C2033   1.349       .  A
N2026      C2034   1.351       .  A
C2027      C2035   1.392       .  A
C2027      C2043   1.429       .  A
C2028      C2044   1.419       .  A
C2028      C2036   1.383       .  A
C2029      C2037   1.385       .  A
C2029      C2046   1.409       .  A
C2030      C2045   1.415       .  A
C2030      C2038   1.388       .  A
C2031      C2043   1.422       .  A
C2031      C2039   1.386       .  A
C2032      C2046   1.419       .  A
C2032      C2040   1.386       .  A
C2033      C2041   1.384       .  A
C2033      C2044   1.409       .  A
C2034      C2042   1.386       .  A
C2034      C2045   1.413       .  A
C2035      H2047   1.077       .  S
C2036      H2048   1.082       .  S
C2037      H2049   1.082       .  S
C2038      H2050   1.082       .  S
C2039      C2040   1.364       .  A
C2039      H2051   1.080       .  S
C2040      H2052   1.078       .  S
C2041      C2042   1.373       .  A
C2041      H2053   1.080       .  S
C2042      H2054   1.081       .  S
C2043      C2264   1.502       .  S
C2044      C2284   1.496       .  S
C2045      C2274   1.496       .  S
C2046      C2257   1.496       .  S
N2057      C2062   1.356       .  A
N2057      C2061   1.360       .  A
N2057      H2089   1.040       .  S
N2058      C2065   1.348       .  A
N2058      C2066   1.347       .  A
N2059      C2064   1.351       .  A
N2059      C2063   1.352       .  A
N2059      H2090   1.042       .  S
N2060      C2067   1.354       .  A
N2060      C2068   1.355       .  A
C2061      C2069   1.385       .  A
C2061      C2077   1.423       .  A
C2062      C2078   1.428       .  A
C2062      C2070   1.391       .  A
C2063      C2071   1.388       .  A
C2063      C2080   1.416       .  A
C2064      C2079   1.408       .  A
C2064      C2072   1.385       .  A
C2065      C2077   1.406       .  A
C2065      C2073   1.385       .  A
C2066      C2080   1.410       .  A
C2066      C2074   1.387       .  A
C2067      C2075   1.388       .  A
C2067      C2078   1.421       .  A
C2068      C2076   1.384       .  A
C2068      C2079   1.418       .  A
C2069      C2070   1.369       .  A
C2069      H2081   1.081       .  S
C2070      H2082   1.079       .  S
C2071      C2072   1.375       .  A
C2071      H2083   1.082       .  S
C2072      H2084   1.081       .  S
C2073      C2074   1.376       .  A
C2073      H2085   1.082       .  S
C2074      H2086   1.082       .  S
C2075      C2076   1.376       .  A
C2075      H2087   1.081       .  S
C2076      H2088   1.081       .  S
C2077      C2214   1.502       .  S
C2078      C2234   1.500       .  S
C2079      C2247   1.490       .  S
C2080      C2224   1.490       .  S
C2091      C2547   1.485       .  S
C2091      C2976   1.421   1_545  A
C2091      C2096   1.398       .  A
C2092      C2347   1.493       .  S
C2092      C2975   1.419       .  A
C2092      C2093   1.415       .  A
C2093      C2094   1.416       .  A
C2093      H2098   1.084       .  S
C2094      C2237   1.503       .  S
C2094      C2979   1.420       .  A
C2095      C2254   1.480       .  S
C2095      C2978   1.423   1_545  A
C2095      C2096   1.390       .  A
C2096      H2097   1.086       .  S
N2099      C2988   1.356       .  A
N2099      C2103   1.353       .  A
N2099      H2131   1.041       .  S
N2100      C2107   1.350       .  A
N2100      C2108   1.352       .  A
N2101      C2990   1.351       .  A
N2101      C2105   1.352       .  A
N2101      H2132   1.041       .  S
N2102      C2109   1.352       .  A
N2102      C2110   1.352       .  A
C2103      C2111   1.386       .  A
C2103      C2119   1.415       .  A
C2104      N2983   1.356   1_545  A
C2104      C2120   1.419       .  A
C2104      C2112   1.387       .  A
C2105      C2113   1.386       .  A
C2105      C2122   1.411       .  A
C2106      N2985   1.350   1_545  A
C2106      C2121   1.413       .  A
C2106      C2114   1.387       .  A
C2107      C2119   1.413       .  A
C2107      C2115   1.387       .  A
C2108      C2122   1.412       .  A
C2108      C2116   1.385       .  A
C2109      C2117   1.384       .  A
C2109      C2120   1.415       .  A
C2110      C2118   1.386       .  A
C2110      C2121   1.416       .  A
C2111      C2996   1.379       .  A
C2111      H2123   1.082       .  S
C2112      C2995   1.379   1_545  A
C2112      H2124   1.082       .  S
C2113      C2998   1.377       .  A
C2113      H2125   1.082       .  S
C2114      C2997   1.376   1_545  A
C2114      H2126   1.082       .  S
C2115      C2116   1.376       .  A
C2115      H2127   1.082       .  S
C2116      H2128   1.081       .  S
C2117      C2118   1.375       .  A
C2117      H2129   1.081       .  S
C2118      H2130   1.080       .  S
C2119      C2177   1.486       .  S
C2120      C2194   1.502       .  S
C2121      C2204   1.495       .  S
C2122      C2187   1.490       .  S
C2133      C2624   1.487       .  S
C2133      C3018   1.411   1_545  A
C2133      C2138   1.405       .  A
C2134      C2317   1.485       .  S
C2134      C3017   1.410       .  A
C2134      C2135   1.400       .  A
C2135      C2136   1.402       .  A
C2135      H2140   1.085       .  S
C2136      C2244   1.491       .  S
C2136      C3021   1.430       .  A
C2137      C2267   1.501       .  S
C2137      C3020   1.428   1_545  A
C2137      C2138   1.407       .  A
C2138      H2139   1.083       .  S
C2141      C2324   1.489       .  S
C2141      C2142   1.417       .  A
C2141      C2146   1.403       .  A
C2142      C2577   1.484       .  S
C2142      C2143   1.412       .  A
C2143      C2144   1.406       .  A
C2143      H2148   1.084       .  S
C2144      C2197   1.492       .  S
C2144      C2145   1.414       .  A
C2145      C2277   1.478       .  S
C2145      C2146   1.398       .  A
C2146      H2147   1.085       .  S
C2149      C2604   1.489       .  S
C2149      C2150   1.427       .  A
C2149      C2154   1.406       .  A
C2150      C2297   1.493       .  S
C2150      C2151   1.409       .  A
C2151      C2152   1.399       .  A
C2151      H2156   1.084       .  S
C2152      C2287   1.479       .  S
C2152      C2153   1.408       .  A
C2153      C2207   1.477       .  S
C2153      C2154   1.395       .  A
C2154      H2155   1.085       .  S
C2157      C2567   1.500       .  S
C2157      C2162   1.411       .  A
C2158      C2334   1.491       .  S
C2158      C2159   1.404       .  A
C2159      C2160   1.399       .  A
C2159      H2164   1.085       .  S
C2160      C2174   1.487       .  S
C2161      C2217   1.501       .  S
C2161      C2162   1.409       .  A
C2162      H2163   1.083       .  S
C2165      C2307   1.482       .  S
C2165      C2170   1.408       .  A
C2166      C2634   1.483       .  S
C2166      C2167   1.397       .  A
C2167      C2168   1.397       .  A
C2167      H2172   1.085       .  S
C2168      C2227   1.488       .  S
C2169      C2184   1.490       .  S
C2169      C2170   1.407       .  A
C2170      H2171   1.084       .  S
C2173      C2174   1.409       .  A
C2173      C2178   1.400       .  A
C2173      F2180   1.358       .  S
C2174      C2175   1.405       .  A
C2175      C2176   1.400       .  A
C2176      C2177   1.405       .  A
C2176      F2181   1.357       .  S
C2177      C2178   1.404       .  A
C2178      F2179   1.358       .  S
C2183      C2184   1.408       .  A
C2183      C2188   1.403       .  A
C2183      F2190   1.358       .  S
C2184      C2185   1.406       .  A
C2185      C2186   1.398       .  A
C2186      C2187   1.405       .  A
C2187      C2188   1.406       .  A
C2188      F2189   1.358       .  S
C2193      C2194   1.411       .  A
C2193      C2198   1.405       .  A
C2193      F2200   1.357       .  S
C2194      C2195   1.408       .  A
C2195      C2196   1.400       .  A
C2195      F2202   1.358       .  S
C2196      C2197   1.406       .  A
C2196      F2201   1.356       .  S
C2197      C2198   1.405       .  A
C2198      F2199   1.357       .  S
C2203      C2204   1.411       .  A
C2203      C2208   1.394       .  A
C2203      F2210   1.358       .  S
C2204      C2205   1.409       .  A
C2205      C2206   1.401       .  A
C2205      F2212   1.358       .  S
C2206      C2207   1.403       .  A
C2206      F2211   1.358       .  S
C2207      C2208   1.400       .  A
C2208      F2209   1.356       .  S
C2213      C2214   1.410       .  A
C2213      C2218   1.399       .  A
C2213      F2220   1.357       .  S
C2214      C2215   1.406       .  A
C2215      C2216   1.399       .  A
C2215      F2222   1.358       .  S
C2216      C2217   1.412       .  A
C2216      F2221   1.357       .  S
C2217      C2218   1.409       .  A
C2223      C2224   1.407       .  A
C2223      C2228   1.392       .  A
C2223      F2230   1.357       .  S
C2224      C2225   1.407       .  A
C2225      C2226   1.396       .  A
C2225      F2232   1.359       .  S
C2226      C2227   1.411       .  A
C2226      F2231   1.358       .  S
C2227      C2228   1.404       .  A
C2233      C2234   1.403       .  A
C2233      C2238   1.395       .  A
C2233      F2240   1.359       .  S
C2234      C2235   1.409       .  A
C2235      C2236   1.408       .  A
C2235      F2242   1.357       .  S
C2236      C2237   1.410       .  A
C2236      F2241   1.357       .  S
C2237      C2238   1.408       .  A
C2238      F2239   1.350       .  S
C2243      C2244   1.409       .  A
C2243      C2248   1.406       .  A
C2243      F2250   1.358       .  S
C2244      C2245   1.408       .  A
C2245      C2246   1.395       .  A
C2245      F2252   1.358       .  S
C2246      C2247   1.403       .  A
C2246      F2251   1.358       .  S
C2247      C2248   1.409       .  A
C2248      F2249   1.357       .  S
C2253      C2254   1.406       .  A
C2253      C2258   1.401       .  A
C2253      F2260   1.358       .  S
C2254      C2255   1.401       .  A
C2255      C2256   1.394       .  A
C2255      F2262   1.357       .  S
C2256      C2257   1.411       .  A
C2256      F2261   1.358       .  S
C2257      C2258   1.408       .  A
C2258      F2259   1.358       .  S
C2263      C2264   1.406       .  A
C2263      C2268   1.400       .  A
C2263      F2270   1.358       .  S
C2264      C2265   1.410       .  A
C2265      C2266   1.395       .  A
C2265      F2272   1.358       .  S
C2266      C2267   1.406       .  A
C2266      F3155   1.356   1_545  S
C2267      C2268   1.414       .  A
C2268      F2269   1.357       .  S
F2271      C3150   1.356       .  S
C2273      C2274   1.410       .  A
C2273      C2278   1.396       .  A
C2273      F2280   1.358       .  S
C2274      C2275   1.410       .  A
C2275      C2276   1.400       .  A
C2275      F2282   1.358       .  S
C2276      C2277   1.403       .  A
C2276      F2281   1.358       .  S
C2277      C2278   1.401       .  A
C2278      F2279   1.357       .  S
C2283      C2284   1.410       .  A
C2283      C2288   1.400       .  A
C2283      F2290   1.358       .  S
C2284      C2285   1.408       .  A
C2285      C2286   1.396       .  A
C2285      F2292   1.358       .  S
C2286      C2287   1.402       .  A
C2286      F2291   1.356       .  S
C2287      C2288   1.403       .  A
C2288      F2289   1.358       .  S
C2293      C2294   1.407       .  A
C2293      C2298   1.407       .  A
C2293      F2300   1.357       .  S
C2294      C2295   1.416       .  A
C2295      C2296   1.399       .  A
C2295      F2302   1.358       .  S
C2296      C2297   1.402       .  A
C2296      F2301   1.358       .  S
C2297      C2298   1.413       .  A
C2298      F2299   1.358       .  S
C2303      C2304   1.418       .  A
C2303      C2308   1.395       .  A
C2303      F2310   1.358       .  S
C2304      C2305   1.411       .  A
C2305      C2306   1.404       .  A
C2305      F2312   1.357       .  S
C2306      C2307   1.406       .  A
C2306      F2311   1.358       .  S
C2307      C2308   1.399       .  A
C2308      F2309   1.358       .  S
C2313      C2314   1.402       .  A
C2313      C2318   1.400       .  A
C2313      F2320   1.358       .  S
C2314      C2315   1.401       .  A
C2315      C2316   1.397       .  A
C2315      F2322   1.358       .  S
C2316      C2317   1.407       .  A
C2316      F2321   1.357       .  S
C2317      C2318   1.409       .  A
C2318      F2319   1.358       .  S
C2323      C2324   1.408       .  A
C2323      C2328   1.406       .  A
C2323      F2330   1.357       .  S
C2324      C2325   1.408       .  A
C2325      C2326   1.396       .  A
C2325      F2332   1.358       .  S
C2326      C2327   1.402       .  A
C2326      F2331   1.358       .  S
C2327      C2328   1.406       .  A
C2328      F2329   1.357       .  S
C2333      C2334   1.415       .  A
C2333      C2338   1.408       .  A
C2333      F2340   1.358       .  S
C2334      C2335   1.400       .  A
C2335      C2336   1.394       .  A
C2335      F2342   1.358       .  S
C2336      C2337   1.416       .  A
C2336      F2341   1.359       .  S
C2337      C2338   1.405       .  A
C2338      F2339   1.357       .  S
C2343      C2344   1.412       .  A
C2343      C2348   1.412       .  A
C2343      F2350   1.357       .  S
C2344      C2345   1.423       .  A
C2345      C2346   1.397       .  A
C2345      F2352   1.358       .  S
C2346      C2347   1.398       .  A
C2346      F2351   1.358       .  S
C2347      C2348   1.410       .  A
C2348      F2349   1.357       .  S
C2353      C2354   1.406       .  A
C2353      C2358   1.403       .  A
C2353      F2360   1.357       .  S
C2354      C2355   1.418       .  A
C2355      C2356   1.397       .  A
C2355      F2362   1.359       .  S
C2356      C2357   1.400       .  A
C2356      F2361   1.358       .  S
C2357      C2358   1.411       .  A
C2358      F2359   1.358       .  S
C2363      C2364   1.406       .  A
C2363      C2368   1.405       .  A
C2363      F2370   1.357       .  S
C2364      C2365   1.400       .  A
C2365      C2366   1.395       .  A
C2365      F2372   1.358       .  S
C2366      C2367   1.412       .  A
C2366      F2371   1.359       .  S
C2367      C2368   1.407       .  A
C2368      F2369   1.357       .  S
C2373      C2374   1.399       .  A
C2373      C2378   1.391       .  A
C2373      F2380   1.359       .  S
C2374      C2375   1.406       .  A
C2375      C2376   1.405       .  A
C2375      F2382   1.358       .  S
C2376      C2377   1.410       .  A
C2376      F2381   1.357       .  S
C2377      C2378   1.414       .  A
C2378      F2379   1.359       .  S
C2383      C2384   1.402       .  A
C2383      C2388   1.401       .  A
C2383      F2390   1.358       .  S
C2384      C2385   1.411       .  A
C2385      C2386   1.401       .  A
C2385      F2392   1.358       .  S
C2386      C2387   1.404       .  A
C2386      F2391   1.358       .  S
C2387      C2388   1.413       .  A
C2388      F2389   1.358       .  S
C2393      C2394   1.416       .  A
C2393      C2398   1.396       .  A
C2393      F2400   1.358       .  S
C2394      C2395   1.406       .  A
C2395      C2396   1.405       .  A
C2395      F2402   1.357       .  S
C2396      C2397   1.413       .  A
C2396      F2401   1.358       .  S
C2397      C2398   1.401       .  A
C2398      F2399   1.358       .  S
C2403      C2404   1.414       .  A
C2403      C2408   1.400       .  A
C2403      F2410   1.358       .  S
C2404      C2405   1.404       .  A
C2405      C2406   1.400       .  A
C2405      F2412   1.357       .  S
C2406      C2407   1.414       .  A
C2406      F2411   1.358       .  S
C2407      C2408   1.403       .  A
C2408      F2409   1.358       .  S
C2413      C2414   1.410       .  A
C2413      C2418   1.396       .  A
C2413      F2420   1.359       .  S
C2414      C2415   1.404       .  A
C2415      C2416   1.399       .  A
C2415      F2422   1.358       .  S
C2416      C2417   1.408       .  A
C2416      F2421   1.358       .  S
C2417      C2418   1.403       .  A
C2418      F2419   1.355       .  S
C2423      C2424   1.411       .  A
C2423      C2428   1.396       .  A
C2423      F2430   1.358       .  S
C2424      C2425   1.410       .  A
C2425      C2426   1.401       .  A
C2425      F2432   1.358       .  S
C2426      C2427   1.403       .  A
C2426      F2431   1.358       .  S
C2427      C2428   1.400       .  A
C2428      F3313   1.357       .  S
F2429      C3312   1.356       .  S
C2433      C2434   1.401       .  A
C2433      C2438   1.394       .  A
C2433      F2440   1.358       .  S
C2434      C2435   1.402       .  A
C2435      C2436   1.394       .  A
C2435      F2442   1.356       .  S
C2436      C2437   1.407       .  A
C2436      F2441   1.358       .  S
C2437      C2438   1.406       .  A
C2438      F2439   1.358       .  S
C2443      C2444   1.408       .  A
C2443      C2448   1.393       .  A
C2443      F2450   1.354       .  S
C2444      C2445   1.420       .  A
C2445      C2446   1.401       .  A
C2445      F2452   1.357       .  S
C2446      C2447   1.404       .  A
C2446      F2451   1.358       .  S
C2447      C2448   1.406       .  A
C2448      F2449   1.357       .  S
C2453      C2454   1.404       .  A
C2453      C2458   1.400       .  A
C2453      F2460   1.358       .  S
C2454      C2455   1.403       .  A
C2455      C2456   1.396       .  A
C2455      F2462   1.355       .  S
C2456      C2457   1.408       .  A
C2456      F2461   1.358       .  S
C2457      C2458   1.408       .  A
C2458      F2459   1.358       .  S
C2463      C2464   1.401       .  A
C2463      C2468   1.396       .  A
C2463      F2470   1.357       .  S
C2464      C2465   1.400       .  A
C2465      C2466   1.393       .  A
C2465      F2472   1.358       .  S
C2466      C2467   1.409       .  A
C2466      F2471   1.358       .  S
C2467      C2468   1.410       .  A
C2468      F2469   1.358       .  S
C2473      C2474   1.408       .  A
C2473      C2478   1.400       .  A
C2473      F2480   1.358       .  S
C2474      C2475   1.407       .  A
C2475      C2476   1.391       .  A
C2475      F2482   1.358       .  S
C2476      C2477   1.400       .  A
C2476      F2481   1.357       .  S
C2477      C2478   1.404       .  A
C2478      F2479   1.358       .  S
C2483      C2484   1.409       .  A
C2483      C2488   1.394       .  A
C2483      F2490   1.358       .  S
C2484      C2485   1.406       .  A
C2485      C2486   1.398       .  A
C2485      F2492   1.358       .  S
C2486      C2487   1.404       .  A
C2486      F2491   1.357       .  S
C2487      C2488   1.401       .  A
C2488      F2489   1.356       .  S
C2493      C2494   1.405       .  A
C2493      C2498   1.406       .  A
C2493      F2500   1.357       .  S
C2494      C2495   1.402       .  A
C2495      C2496   1.398       .  A
C2495      F2502   1.357       .  S
C2496      C2497   1.411       .  A
C2496      F2501   1.358       .  S
C2497      C2498   1.413       .  A
C2498      F2499   1.358       .  S
C2503      C2504   1.413       .  A
C2503      C2508   1.403       .  A
C2503      F2510   1.358       .  S
C2504      C2505   1.412       .  A
C2505      C2506   1.396       .  A
C2505      F2512   1.357       .  S
C2506      C2507   1.401       .  A
C2506      F2511   1.357       .  S
C2507      C2508   1.404       .  A
C2508      F2509   1.358       .  S
C2513      C2514   1.404       .  A
C2513      C2518   1.400       .  A
C2513      F2520   1.358       .  S
C2514      C2515   1.400       .  A
C2515      C2516   1.396       .  A
C2515      F2522   1.357       .  S
C2516      C2517   1.410       .  A
C2516      F2521   1.358       .  S
C2517      C2518   1.409       .  A
C2518      F2519   1.358       .  S
C2523      C2524   1.403       .  A
C2523      C2528   1.400       .  A
C2523      F2530   1.358       .  S
C2524      C2525   1.406       .  A
C2525      C2526   1.402       .  A
C2525      F2532   1.357       .  S
C2526      C2527   1.406       .  A
C2526      F2531   1.357       .  S
C2527      C2528   1.411       .  A
C2528      F2529   1.358       .  S
C2533      C2534   1.400       .  A
C2533      C2538   1.400       .  A
C2533      F2540   1.358       .  S
C2534      C2535   1.413       .  A
C2535      C2536   1.406       .  A
C2535      F2542   1.358       .  S
C2536      C2537   1.407       .  A
C2536      F2541   1.357       .  S
C2537      C2538   1.418       .  A
C2538      F2539   1.358       .  S
C2543      C2544   1.420       .  A
C2543      C2548   1.397       .  A
C2543      F2550   1.358       .  S
C2544      C2545   1.406       .  A
C2545      C2546   1.400       .  A
C2545      F2552   1.357       .  S
C2546      C2547   1.411       .  A
C2546      F2551   1.358       .  S
C2547      C2548   1.399       .  A
C2548      F2549   1.358       .  S
C2553      C2554   1.413       .  A
C2553      C2558   1.404       .  A
C2553      F2560   1.358       .  S
C2554      C2555   1.401       .  A
C2555      C2556   1.396       .  A
C2555      F2562   1.358       .  S
C2556      C2557   1.415       .  A
C2556      F2561   1.359       .  S
C2557      C2558   1.404       .  A
C2558      F2559   1.357       .  S
C2563      C2564   1.411       .  A
C2563      C2568   1.407       .  A
C2563      F2570   1.358       .  S
C2564      C2565   1.407       .  A
C2565      C2566   1.402       .  A
C2565      F2572   1.358       .  S
C2566      C2567   1.411       .  A
C2566      F2571   1.358       .  S
C2567      C2568   1.408       .  A
C2568      F2569   1.357       .  S
C2573      C2574   1.409       .  A
C2573      C2578   1.399       .  A
C2573      F2580   1.358       .  S
C2574      C2575   1.406       .  A
C2575      C2576   1.404       .  A
C2575      F2582   1.358       .  S
C2576      C2577   1.408       .  A
C2576      F2581   1.358       .  S
C2577      C2578   1.402       .  A
C2578      F2579   1.358       .  S
C2583      C2584   1.402       .  A
C2583      C2588   1.402       .  A
C2583      F2590   1.358       .  S
C2584      C2585   1.405       .  A
C2585      C2586   1.398       .  A
C2585      F2592   1.358       .  S
C2586      C2587   1.405       .  A
C2586      F2591   1.358       .  S
C2587      C2588   1.410       .  A
C2588      F2589   1.357       .  S
C2593      C2594   1.399       .  A
C2593      C2598   1.394       .  A
C2593      F2600   1.358       .  S
C2594      C2595   1.404       .  A
C2595      C2596   1.401       .  A
C2595      F2602   1.358       .  S
C2596      C2597   1.406       .  A
C2596      F2601   1.357       .  S
C2597      C2598   1.407       .  A
C2598      F2599   1.358       .  S
C2603      C2604   1.403       .  A
C2603      C2608   1.404       .  A
C2603      F2610   1.358       .  S
C2604      C2605   1.410       .  A
C2605      C2606   1.400       .  A
C2605      F2612   1.358       .  S
C2606      C2607   1.404       .  A
C2606      F2611   1.358       .  S
C2607      C2608   1.414       .  A
C2608      F2609   1.358       .  S
C2613      C2614   1.409       .  A
C2613      C2618   1.408       .  A
C2613      F2620   1.357       .  S
C2614      C2615   1.417       .  A
C2615      C2616   1.399       .  A
C2615      F2622   1.358       .  S
C2616      C2617   1.402       .  A
C2616      F2621   1.358       .  S
C2617      C2618   1.410       .  A
C2618      F2619   1.357       .  S
C2623      C2624   1.406       .  A
C2623      C2628   1.395       .  A
C2623      F2630   1.358       .  S
C2624      C2625   1.410       .  A
C2625      C2626   1.403       .  A
C2625      F2632   1.358       .  S
C2626      C2627   1.405       .  A
C2626      F2631   1.358       .  S
C2627      C2628   1.407       .  A
C2628      F2629   1.359       .  S
C2633      C2634   1.399       .  A
C2633      C2638   1.396       .  A
C2633      F2640   1.358       .  S
C2634      C2635   1.409       .  A
C2635      C2636   1.400       .  A
C2635      F2642   1.358       .  S
C2636      C2637   1.407       .  A
C2636      F2641   1.357       .  S
C2637      C2638   1.418       .  A
C2638      F2639   1.358       .  S
C2643      C2644   1.419       .  A
C2643      C2648   1.400       .  A
C2643      F2650   1.358       .  S
C2644      C2645   1.406       .  A
C2645      C2646   1.405       .  A
C2645      F2652   1.357       .  S
C2646      C2647   1.412       .  A
C2646      F2651   1.358       .  S
C2647      C2648   1.400       .  A
C2648      F2649   1.358       .  S
O2653     Ni2659   1.930       .  S
O2653      C2674   1.273       .  A
O2654     Ni2677   1.939   1_556  S
O2654      C2663   1.282       .  A
O2655     Ni2659   1.885       .  S
O2655     Ni2677   1.910       .  S
O2655     Ni2671   1.905       .  S
O2655      H2678   0.966       .  S
C2656      O2673   1.276       .  A
C2656      O2665   1.278       .  A
C2656      C3478   1.465       .  S
O2657     Ni2676   1.913       .  S
O2657      C2663   1.269       .  A
O2658     Ni2676   1.912       .  S
O2658      C2660   1.268   1_556  A
Ni2659     O2662   1.920       .  S
Ni2659     O2664   1.892       .  S
C2660      O2670   1.276       .  A
C2660      C3491   1.489       .  S
O2661     Ni2677   1.928       .  S
O2661      C2667   1.283       .  A
O2662      C2667   1.277       .  A
C2663      C3528   1.489       .  S
O2664      C2666   1.266   1_554  A
O2665     Ni2676   1.916       .  S
C2666      O2672   1.281       .  A
C2666      C3498   1.495       .  S
C2667      C3521   1.492       .  S
H2668      O2669   0.966       .  S
O2669     Ni2677   1.914   1_556  S
O2669     Ni2671   1.888   1_556  S
O2669     Ni2676   1.879       .  S
O2670     Ni2671   1.939       .  S
Ni2671     O2675   1.908       .  S
Ni2671     O2673   1.927   1_554  S
O2672     Ni2677   1.962   1_556  S
C2674      O2675   1.268       .  A
C2674      C3511   1.477       .  S
O2679     Ni2685   1.911       .  S
O2679      C2700   1.267       .  A
O2680     Ni2703   1.927       .  S
O2680      C2689   1.272       .  A
O2681     Ni2685   1.886       .  S
O2681     Ni2703   1.896       .  S
O2681     Ni2697   1.917       .  S
O2681      H2704   0.967       .  S
C2682      O2699   1.283       .  A
C2682      O2691   1.275       .  A
C2682      C3428   1.492       .  S
O2683     Ni2702   1.924       .  S
O2683      C2689   1.268       .  A
O2684     Ni2702   1.882       .  S
O2684      C2686   1.264       .  A
Ni2685     O2688   1.911       .  S
Ni2685     O2690   1.915       .  S
C2686      O2696   1.278       .  A
C2686      C3441   1.479       .  S
O2687     Ni2703   1.944       .  S
O2687      C2693   1.283       .  A
O2688      C2693   1.277       .  A
C2689      C3458   1.478       .  S
O2690      C2692   1.267       .  A
O2691     Ni2702   1.917       .  S
C2692      O2698   1.274       .  A
C2692      C3448   1.487       .  S
C2693      C3468   1.471       .  S
H2694      O2695   0.965       .  S
O2695     Ni2703   1.913       .  S
O2695     Ni2697   1.919       .  S
O2695     Ni2702   1.890       .  S
O2696     Ni2697   1.951       .  S
Ni2697     O2701   1.947       .  S
Ni2697     O2699   1.926       .  S
O2698     Ni2703   1.935       .  S
C2700      O2701   1.281       .  A
C2700      C3421   1.495       .  S
N2705      C2710   1.350       .  A
N2705      H2737   1.041       .  S
N2706      C2713   1.350       .  A
N2706      C2714   1.352       .  A
N2707      C2712   1.354       .  A
N2707      H2738   1.043       .  S
N2708      C2715   1.350       .  A
N2708      C2716   1.352       .  A
C2709      C2717   1.386       .  A
C2709      C2725   1.411       .  A
C2710      C2726   1.415       .  A
C2710      C2718   1.389       .  A
C2711      C2719   1.386       .  A
C2711      C2728   1.414       .  A
C2712      C2727   1.419       .  A
C2712      C2720   1.388       .  A
C2713      C2725   1.411       .  A
C2713      C2721   1.382       .  A
C2714      C2728   1.416       .  A
C2714      C2722   1.387       .  A
C2715      C2723   1.386       .  A
C2715      C2726   1.415       .  A
C2716      C2724   1.386       .  A
C2716      C2727   1.417       .  A
C2717      H2729   1.082       .  S
C2718      H2730   1.082       .  S
C2719      H2731   1.082       .  S
C2720      H2732   1.082       .  S
C2721      C2722   1.376       .  A
C2721      H2733   1.078       .  S
C2722      H2734   1.081       .  S
C2723      C2724   1.380       .  A
C2723      H2735   1.081       .  S
C2724      H2736   1.081       .  S
C2725      C3408   1.487       .  S
C2726      C3401   1.494       .  S
C2727      C3381   1.509       .  S
C2728      C3388   1.500       .  S
N2739      C2744   1.349       .  A
N2739      C2743   1.348       .  A
N2739      H2771   1.040       .  S
N2740      C2747   1.351       .  A
N2740      C2748   1.350       .  A
N2741      C2746   1.351       .  A
N2741      C2745   1.351       .  A
N2741      H2772   1.040       .  S
N2742      C2749   1.349       .  A
N2742      C2750   1.346       .  A
C2743      C2751   1.387       .  A
C2743      C2759   1.410       .  A
C2744      C2760   1.410       .  A
C2744      C2752   1.387       .  A
C2745      C2753   1.387       .  A
C2745      C2762   1.414       .  A
C2746      C2761   1.414       .  A
C2746      C2754   1.387       .  A
C2747      C2759   1.413       .  A
C2747      C2755   1.386       .  A
C2748      C2762   1.413       .  A
C2748      C2756   1.386       .  A
C2749      C2757   1.385       .  A
C2749      C2760   1.408       .  A
C2750      C2758   1.387       .  A
C2750      C2761   1.408       .  A
C2751      C2752   1.377       .  A
C2751      H2763   1.082       .  S
C2752      H2764   1.083       .  S
C2753      C2754   1.379       .  A
C2753      H2765   1.082       .  S
C2754      H2766   1.082       .  S
C2755      C2756   1.375       .  A
C2755      H2767   1.082       .  S
C2756      H2768   1.081       .  S
C2757      C2758   1.373       .  A
C2757      H2769   1.081       .  S
C2758      H2770   1.081       .  S
C2759      C3368   1.487       .  S
C2760      C3358   1.486       .  S
C2761      C3351   1.483       .  S
C2762      C3341   1.490       .  S
N2773      C2777   1.352       .  A
N2773      H2805   1.041       .  S
N2774      C2781   1.352       .  A
N2774      C2782   1.347       .  A
N2775      C2779   1.357       .  A
N2775      H2806   1.031       .  S
N2776      C2783   1.352       .  A
N2776      C2784   1.350       .  A
C2777      C2785   1.388       .  A
C2777      C2793   1.412       .  A
C2778      C2794   1.405       .  A
C2778      C2786   1.384       .  A
C2779      C2787   1.385       .  A
C2779      C2796   1.425       .  A
C2780      C2795   1.432       .  A
C2780      C2788   1.391       .  A
C2781      C2793   1.411       .  A
C2781      C2789   1.384       .  A
C2782      C2796   1.415       .  A
C2782      C2790   1.388       .  A
C2783      C2791   1.384       .  A
C2783      C2794   1.413       .  A
C2784      C2792   1.389       .  A
C2784      C2795   1.425       .  A
C2785      H2797   1.082       .  S
C2786      H2798   1.082       .  S
C2787      H2799   1.081       .  S
C2788      H2800   1.079       .  S
C2789      C2790   1.371       .  A
C2789      H2801   1.081       .  S
C2790      H2802   1.082       .  S
C2791      C2792   1.368       .  A
C2791      H2803   1.078       .  S
C2792      H2804   1.081       .  S
C2793      C3308   1.492       .  S
C2794      C3298   1.489       .  S
C2795      C3331   1.501       .  S
C2796      C3321   1.488       .  S
C2807      C3418   1.493       .  S
C2807      C2812   1.409       .  A
C2808      C3288   1.495       .  S
C2808      C2809   1.410       .  A
C2809      C2810   1.396       .  A
C2809      H2814   1.084       .  S
C2810      C3371   1.480       .  S
C2811      C3398   1.477       .  S
C2811      C2812   1.398       .  A
C2812      H2813   1.085       .  S
C2815      C3438   1.483       .  S
C2815      C2820   1.406       .  A
C2816      C3281   1.484       .  S
C2816      C2817   1.403       .  A
C2817      C2818   1.394       .  A
C2817      H2822   1.085       .  S
C2818      C3318   1.477       .  S
C2819      C3361   1.478       .  S
C2819      C2820   1.394       .  A
C2820      H2821   1.085       .  S
C2823      C3268   1.482       .  S
C2823      C2824   1.419       .  A
C2823      C2828   1.406       .  A
C2824      C3531   1.485       .  S
C2824      C2825   1.401       .  A
C2825      C2826   1.397       .  A
C2825      H2830   1.085       .  S
C2826      C3301   1.478       .  S
C2826      C2827   1.413       .  A
C2827      C3391   1.480       .  S
C2827      C2828   1.399       .  A
C2828      H2829   1.085       .  S
C2831      C3258   1.480       .  S
C2831      C2832   1.407       .  A
C2831      C2836   1.403       .  A
C2832      C3471   1.485       .  S
C2832      C2833   1.403       .  A
C2833      C2834   1.408       .  A
C2833      H2838   1.082       .  S
C2834      C3328   1.503       .  S
C2834      C2835   1.428       .  A
C2835      C3411   1.490       .  S
C2835      C2836   1.404       .  A
C2836      H2837   1.085       .  S
C2839      C3248   1.479       .  S
C2839      C2844   1.408       .  A
C2840      C3481   1.471       .  S
C2840      C2841   1.399       .  A
C2841      C2842   1.393       .  A
C2841      H2846   1.085       .  S
C2842      C3348   1.474       .  S
C2843      C3311   1.480       .  S
C2843      C2844   1.400       .  A
C2844      H2845   1.085       .  S
C2847      C3241   1.488       .  S
C2847      C2852   1.401       .  A
C2848      C3501   1.493       .  S
C2848      C2849   1.414       .  A
C2849      C2850   1.409       .  A
C2849      H2854   1.084       .  S
C2850      C3378   1.487       .  S
C2851      C3338   1.481       .  S
C2851      C2852   1.396       .  A
C2852      H2853   1.085       .  S
O2855     Ni2861   1.906       .  S
O2855      C2876   1.263       .  A
O2856     Ni2879   1.949       .  S
O2856      C2865   1.282       .  A
O2857     Ni2861   1.873       .  S
O2857     Ni2879   1.905       .  S
O2857     Ni2873   1.919       .  S
O2857      H2880   0.968       .  S
C2858      O2875   1.283       .  A
C2858      O2867   1.281       .  A
C2858      C3211   1.472       .  S
O2859     Ni2878   1.906       .  S
O2859      C2865   1.264       .  A
O2860     Ni2878   1.893       .  S
O2860      C2862   1.262       .  A
Ni2861     O2864   1.901       .  S
Ni2861     O2866   1.888       .  S
C2862      O2872   1.276       .  A
C2862      C3291   1.488       .  S
O2863     Ni2879   1.947       .  S
O2863      C2869   1.288       .  A
O2864      C2869   1.277       .  A
C2865      C3221   1.489       .  S
O2866      C2868   1.264       .  A
O2867     Ni2878   1.917       .  S
C2868      O2874   1.283       .  A
C2868      C3228   1.506       .  S
C2869      C3278   1.487       .  S
H2870      O2871   0.965       .  S
O2871     Ni2879   1.930       .  S
O2871     Ni2873   1.893       .  S
O2871     Ni2878   1.877       .  S
O2872     Ni2873   1.948       .  S
Ni2873     O2877   1.931       .  S
Ni2873     O2875   1.936       .  S
O2874     Ni2879   1.967       .  S
C2876      O2877   1.271       .  A
C2876      C3261   1.487       .  S
O2881     Ni2887   1.914       .  S
O2881      C2902   1.268       .  A
O2882     Ni2905   1.911       .  S
O2882      C2891   1.268       .  A
O2883     Ni2887   1.885       .  S
O2883     Ni2905   1.892   1_554  S
O2883     Ni2899   1.922   1_554  S
O2883      H2906   0.966       .  S
C2884      O2901   1.285       .  A
C2884      O2893   1.277       .  A
C2884      C3238   1.496       .  S
O2885     Ni2904   1.926       .  S
O2885      C2891   1.270       .  A
O2886     Ni2904   1.891       .  S
O2886      C2888   1.265   1_556  A
Ni2887     O2890   1.920       .  S
Ni2887     O2892   1.897       .  S
C2888      O2898   1.278       .  A
C2888      C3188   1.497       .  S
O2889     Ni2905   1.924   1_554  S
O2889      C2895   1.277       .  A
O2890      C2895   1.278       .  A
C2891      C3251   1.471       .  S
O2892      C2894   1.265   1_554  A
O2893     Ni2904   1.917       .  S
C2894      O2900   1.275       .  A
C2894      C3271   1.479       .  S
C2895      C3198   1.465       .  S
H2896      O2897   0.966       .  S
O2897     Ni2905   1.907       .  S
O2897     Ni2899   1.908       .  S
O2897     Ni2904   1.890       .  S
O2898     Ni2899   1.951   1_554  S
Ni2899     O2903   1.940   1_556  S
Ni2899     O2901   1.937       .  S
O2900     Ni2905   1.938       .  S
C2902      O2903   1.280       .  A
C2902      C3178   1.492       .  S
N2907      C2911   1.358       .  A
N2907      H2939   1.038       .  S
N2908      C2915   1.354       .  A
N2908      C2916   1.355       .  A
N2909      C2913   1.348       .  A
N2909      H2940   1.041       .  S
N2910      C2917   1.347       .  A
N2910      C2918   1.352       .  A
C2911      C2919   1.391       .  A
C2911      C2927   1.427       .  A
C2912      C2928   1.420       .  A
C2912      C2920   1.383       .  A
C2913      C2921   1.386       .  A
C2913      C2930   1.409       .  A
C2914      C2929   1.412       .  A
C2914      C2922   1.387       .  A
C2915      C2927   1.421       .  A
C2915      C2923   1.386       .  A
C2916      C2930   1.419       .  A
C2916      C2924   1.386       .  A
C2917      C2925   1.386       .  A
C2917      C2928   1.411       .  A
C2918      C2926   1.384       .  A
C2918      C2929   1.411       .  A
C2919      H2931   1.077       .  S
C2920      H2932   1.082       .  S
C2921      H2933   1.082       .  S
C2922      H2934   1.082       .  S
C2923      C2924   1.363       .  A
C2923      H2935   1.079       .  S
C2924      H2936   1.079       .  S
C2925      C2926   1.373       .  A
C2925      H2937   1.080       .  S
C2926      H2938   1.080       .  S
C2927      C3148   1.502       .  S
C2928      C3168   1.494       .  S
C2929      C3158   1.493       .  S
C2930      C3141   1.494       .  S
N2941      C2946   1.358       .  A
N2941      C2945   1.359       .  A
N2941      H2973   1.040       .  S
N2942      C2949   1.348       .  A
N2942      C2950   1.349       .  A
N2943      C2948   1.350       .  A
N2943      C2947   1.353       .  A
N2943      H2974   1.042       .  S
N2944      C2951   1.354       .  A
N2944      C2952   1.354       .  A
C2945      C2953   1.385       .  A
C2945      C2961   1.424       .  A
C2946      C2962   1.428       .  A
C2946      C2954   1.390       .  A
C2947      C2955   1.388       .  A
C2947      C2964   1.416       .  A
C2948      C2963   1.408       .  A
C2948      C2956   1.386       .  A
C2949      C2961   1.409       .  A
C2949      C2957   1.385       .  A
C2950      C2964   1.412       .  A
C2950      C2958   1.387       .  A
C2951      C2959   1.388       .  A
C2951      C2962   1.420       .  A
C2952      C2960   1.385       .  A
C2952      C2963   1.417       .  A
C2953      C2954   1.370       .  A
C2953      H2965   1.081       .  S
C2954      H2966   1.079       .  S
C2955      C2956   1.375       .  A
C2955      H2967   1.082       .  S
C2956      H2968   1.081       .  S
C2957      C2958   1.376       .  A
C2957      H2969   1.082       .  S
C2958      H2970   1.082       .  S
C2959      C2960   1.375       .  A
C2959      H2971   1.081       .  S
C2960      H2972   1.082       .  S
C2961      C3098   1.504       .  S
C2962      C3118   1.502       .  S
C2963      C3131   1.486       .  S
C2964      C3108   1.497       .  S
C2975      C3431   1.482       .  S
C2975      C2980   1.395       .  A
C2976      C3231   1.498       .  S
C2976      C2977   1.416       .  A
C2977      C2978   1.418       .  A
C2977      H2982   1.084       .  S
C2978      C3121   1.505       .  S
C2979      C3138   1.473       .  S
C2979      C2980   1.389       .  A
C2980      H2981   1.086       .  S
N2983      C2987   1.352       .  A
N2983      H3015   1.040       .  S
N2984      C2991   1.349       .  A
N2984      C2992   1.353       .  A
N2985      C2989   1.352       .  A
N2985      H3016   1.041       .  S
N2986      C2993   1.352       .  A
N2986      C2994   1.353       .  A
C2987      C2995   1.387       .  A
C2987      C3003   1.414       .  A
C2988      C3004   1.420       .  A
C2988      C2996   1.388       .  A
C2989      C2997   1.386       .  A
C2989      C3006   1.411       .  A
C2990      C3005   1.413       .  A
C2990      C2998   1.387       .  A
C2991      C3003   1.414       .  A
C2991      C2999   1.387       .  A
C2992      C3006   1.413       .  A
C2992      C3000   1.384       .  A
C2993      C3001   1.385       .  A
C2993      C3004   1.415       .  A
C2994      C3002   1.385       .  A
C2994      C3005   1.416       .  A
C2995      H3007   1.082       .  S
C2996      H3008   1.082       .  S
C2997      H3009   1.082       .  S
C2998      H3010   1.082       .  S
C2999      C3000   1.377       .  A
C2999      H3011   1.081       .  S
C3000      H3012   1.081       .  S
C3001      C3002   1.374       .  A
C3001      H3013   1.081       .  S
C3002      H3014   1.079       .  S
C3003      C3061   1.483       .  S
C3004      C3078   1.503       .  S
C3005      C3088   1.498       .  S
C3006      C3071   1.491       .  S
C3017      C3508   1.485       .  S
C3017      C3022   1.405       .  A
C3018      C3201   1.482       .  S
C3018      C3019   1.400       .  A
C3019      C3020   1.402       .  A
C3019      H3024   1.085       .  S
C3020      C3128   1.490       .  S
C3021      C3151   1.503       .  S
C3021      C3022   1.408       .  A
C3022      H3023   1.082       .  S
C3025      C3208   1.488       .  S
C3025      C3026   1.416       .  A
C3025      C3030   1.405       .  A
C3026      C3461   1.483       .  S
C3026      C3027   1.411       .  A
C3027      C3028   1.405       .  A
C3027      H3032   1.084       .  S
C3028      C3081   1.489       .  S
C3028      C3029   1.413       .  A
C3029      C3161   1.479       .  S
C3029      C3030   1.398       .  A
C3030      H3031   1.085       .  S
C3033      C3488   1.491       .  S
C3033      C3034   1.427       .  A
C3033      C3038   1.410       .  A
C3034      C3181   1.492       .  S
C3034      C3035   1.407       .  A
C3035      C3036   1.398       .  A
C3035      H3040   1.085       .  S
C3036      C3171   1.477       .  S
C3036      C3037   1.408       .  A
C3037      C3091   1.481       .  S
C3037      C3038   1.398       .  A
C3038      H3039   1.085       .  S
C3041      C3451   1.497       .  S
C3041      C3046   1.412       .  A
C3042      C3218   1.491       .  S
C3042      C3043   1.402       .  A
C3043      C3044   1.400       .  A
C3043      H3048   1.085       .  S
C3044      C3058   1.484       .  S
C3045      C3101   1.503       .  S
C3045      C3046   1.408       .  A
C3046      H3047   1.083       .  S
C3049      C3191   1.484       .  S
C3049      C3054   1.407       .  A
C3050      C3518   1.482       .  S
C3050      C3051   1.399       .  A
C3051      C3052   1.398       .  A
C3051      H3056   1.085       .  S
C3052      C3111   1.490       .  S
C3053      C3068   1.490       .  S
C3053      C3054   1.408       .  A
C3054      H3055   1.084       .  S
C3057      C3058   1.408       .  A
C3057      C3062   1.397       .  A
C3057      F3064   1.358       .  S
C3058      C3059   1.405       .  A
C3059      C3060   1.401       .  A
C3060      C3061   1.406       .  A
C3060      F3065   1.358       .  S
C3061      C3062   1.402       .  A
C3062      F3063   1.358       .  S
C3067      C3068   1.408       .  A
C3067      C3072   1.404       .  A
C3067      F3074   1.358       .  S
C3068      C3069   1.406       .  A
C3069      C3070   1.398       .  A
C3070      C3071   1.406       .  A
C3071      C3072   1.406       .  A
C3072      F3073   1.357       .  S
C3077      C3078   1.413       .  A
C3077      C3082   1.404       .  A
C3077      F3084   1.358       .  S
C3078      C3079   1.409       .  A
C3079      C3080   1.400       .  A
C3079      F3086   1.358       .  S
C3080      C3081   1.405       .  A
C3080      F3085   1.356       .  S
C3081      C3082   1.403       .  A
C3082      F3083   1.357       .  S
C3087      C3088   1.411       .  A
C3087      C3092   1.395       .  A
C3087      F3094   1.358       .  S
C3088      C3089   1.410       .  A
C3089      C3090   1.403       .  A
C3089      F3096   1.358       .  S
C3090      C3091   1.405       .  A
C3090      F3095   1.357       .  S
C3091      C3092   1.400       .  A
C3092      F3093   1.357       .  S
C3097      C3098   1.410       .  A
C3097      C3102   1.400       .  A
C3097      F3104   1.357       .  S
C3098      C3099   1.407       .  A
C3099      C3100   1.401       .  A
C3099      F3106   1.358       .  S
C3100      C3101   1.412       .  A
C3100      F3105   1.357       .  S
C3101      C3102   1.409       .  A
C3107      C3108   1.409       .  A
C3107      C3112   1.394       .  A
C3107      F3114   1.357       .  S
C3108      C3109   1.410       .  A
C3109      C3110   1.398       .  A
C3109      F3116   1.358       .  S
C3110      C3111   1.409       .  A
C3110      F3115   1.358       .  S
C3111      C3112   1.404       .  A
C3117      C3118   1.403       .  A
C3117      C3122   1.397       .  A
C3117      F3124   1.359       .  S
C3118      C3119   1.409       .  A
C3119      C3120   1.408       .  A
C3119      F3126   1.357       .  S
C3120      C3121   1.411       .  A
C3120      F3125   1.357       .  S
C3121      C3122   1.409       .  A
C3122      F3123   1.349       .  S
C3127      C3128   1.409       .  A
C3127      C3132   1.403       .  A
C3127      F3134   1.358   1_565  S
C3128      C3129   1.409       .  A
C3129      C3130   1.395       .  A
C3129      F3136   1.358       .  S
C3130      C3131   1.403       .  A
C3130      F3135   1.358       .  S
C3131      C3132   1.407       .  A
C3132      F3133   1.357       .  S
C3137      C3138   1.403       .  A
C3137      C3142   1.398       .  A
C3137      F3144   1.358       .  S
C3138      C3139   1.401       .  A
C3139      C3140   1.393       .  A
C3139      F3146   1.358       .  S
C3140      C3141   1.411       .  A
C3140      F3145   1.358       .  S
C3141      C3142   1.409       .  A
C3142      F3143   1.358       .  S
C3147      C3148   1.408       .  A
C3147      C3152   1.403       .  A
C3147      F3154   1.358       .  S
C3148      C3149   1.408       .  A
C3149      C3150   1.393       .  A
C3149      F3156   1.357       .  S
C3150      C3151   1.405       .  A
C3151      C3152   1.415       .  A
C3152      F3153   1.357       .  S
C3157      C3158   1.408       .  A
C3157      C3162   1.395       .  A
C3157      F3164   1.358       .  S
C3158      C3159   1.409       .  A
C3159      C3160   1.401       .  A
C3159      F3166   1.358       .  S
C3160      C3161   1.404       .  A
C3160      F3165   1.358       .  S
C3161      C3162   1.402       .  A
C3162      F3163   1.356       .  S
C3167      C3168   1.410       .  A
C3167      C3172   1.398       .  A
C3167      F3174   1.358       .  S
C3168      C3169   1.408       .  A
C3169      C3170   1.396       .  A
C3169      F3176   1.358       .  S
C3170      C3171   1.402       .  A
C3170      F3175   1.356       .  S
C3171      C3172   1.402       .  A
C3172      F3173   1.358       .  S
C3177      C3178   1.406       .  A
C3177      C3182   1.406       .  A
C3177      F3184   1.358       .  S
C3178      C3179   1.416       .  A
C3179      C3180   1.397       .  A
C3179      F3186   1.358       .  S
C3180      C3181   1.402       .  A
C3180      F3185   1.357       .  S
C3181      C3182   1.414       .  A
C3182      F3183   1.358       .  S
C3187      C3188   1.418       .  A
C3187      C3192   1.396       .  A
C3187      F3194   1.358       .  S
C3188      C3189   1.412       .  A
C3189      C3190   1.405       .  A
C3189      F3196   1.357       .  S
C3190      C3191   1.406       .  A
C3190      F3195   1.358       .  S
C3191      C3192   1.399       .  A
C3192      F3193   1.358       .  S
C3197      C3198   1.403       .  A
C3197      C3202   1.400       .  A
C3197      F3204   1.358       .  S
C3198      C3199   1.401       .  A
C3199      C3200   1.396       .  A
C3199      F3206   1.358       .  S
C3200      C3201   1.406       .  A
C3200      F3205   1.358       .  S
C3201      C3202   1.409       .  A
C3202      F3203   1.358       .  S
C3207      C3208   1.409       .  A
C3207      C3212   1.406       .  A
C3207      F3214   1.357       .  S
C3208      C3209   1.407       .  A
C3209      C3210   1.395       .  A
C3209      F3216   1.358       .  S
C3210      C3211   1.402       .  A
C3210      F3215   1.358       .  S
C3211      C3212   1.406       .  A
C3212      F3213   1.358       .  S
C3217      C3218   1.415       .  A
C3217      C3222   1.408       .  A
C3217      F3224   1.358       .  S
C3218      C3219   1.400       .  A
C3219      C3220   1.394       .  A
C3219      F3226   1.358       .  S
C3220      C3221   1.415       .  A
C3220      F3225   1.358       .  S
C3221      C3222   1.405       .  A
C3222      F3223   1.357       .  S
C3227      C3228   1.411       .  A
C3227      C3232   1.412       .  A
C3227      F3234   1.357       .  S
C3228      C3229   1.421       .  A
C3229      C3230   1.397       .  A
C3229      F3236   1.358       .  S
C3230      C3231   1.400       .  A
C3230      F3235   1.358       .  S
C3231      C3232   1.412       .  A
C3232      F3233   1.357       .  S
C3237      C3238   1.409       .  A
C3237      C3242   1.402       .  A
C3237      F3244   1.358       .  S
C3238      C3239   1.419       .  A
C3239      C3240   1.399       .  A
C3239      F3246   1.358       .  S
C3240      C3241   1.400       .  A
C3240      F3245   1.358       .  S
C3241      C3242   1.409       .  A
C3242      F3243   1.358       .  S
C3247      C3248   1.408       .  A
C3247      C3252   1.399       .  A
C3247      F3254   1.358       .  S
C3248      C3249   1.403       .  A
C3249      C3250   1.397       .  A
C3249      F3256   1.358       .  S
C3250      C3251   1.407       .  A
C3250      F3255   1.358       .  S
C3251      C3252   1.402       .  A
C3252      F3253   1.358       .  S
C3257      C3258   1.399       .  A
C3257      C3262   1.391       .  A
C3257      F3264   1.359       .  S
C3258      C3259   1.407       .  A
C3259      C3260   1.405       .  A
C3259      F3266   1.358       .  S
C3260      C3261   1.409       .  A
C3260      F3265   1.357       .  S
C3261      C3262   1.414       .  A
C3262      F3263   1.358       .  S
C3267      C3268   1.401       .  A
C3267      C3272   1.397       .  A
C3267      F3274   1.358       .  S
C3268      C3269   1.409       .  A
C3269      C3270   1.400       .  A
C3269      F3276   1.358       .  S
C3270      C3271   1.404       .  A
C3270      F3275   1.358       .  S
C3271      C3272   1.411       .  A
C3272      F3273   1.358       .  S
C3277      C3278   1.417       .  A
C3277      C3282   1.393       .  A
C3277      F3284   1.358       .  S
C3278      C3279   1.406       .  A
C3279      C3280   1.403       .  A
C3279      F3286   1.358       .  S
C3280      C3281   1.412       .  A
C3280      F3285   1.358       .  S
C3281      C3282   1.398       .  A
C3282      F3283   1.358       .  S
C3287      C3288   1.415       .  A
C3287      C3292   1.401       .  A
C3287      F3294   1.358       .  S
C3288      C3289   1.404       .  A
C3289      C3290   1.401       .  A
C3289      F3296   1.357       .  S
C3290      C3291   1.414       .  A
C3290      F3295   1.358       .  S
C3291      C3292   1.403       .  A
C3292      F3293   1.358       .  S
C3297      C3298   1.411       .  A
C3297      C3302   1.394       .  A
C3297      F3304   1.358       .  S
C3298      C3299   1.405       .  A
C3299      C3300   1.399       .  A
C3299      F3306   1.357       .  S
C3300      C3301   1.408       .  A
C3300      F3305   1.358       .  S
C3301      C3302   1.400       .  A
C3302      F3303   1.355       .  S
C3307      C3308   1.408       .  A
C3307      C3312   1.394       .  A
C3307      F3314   1.358       .  S
C3308      C3309   1.409       .  A
C3309      C3310   1.401       .  A
C3309      F3316   1.357       .  S
C3310      C3311   1.404       .  A
C3310      F3315   1.357       .  S
C3311      C3312   1.403       .  A
C3317      C3318   1.404       .  A
C3317      C3322   1.397       .  A
C3317      F3324   1.358       .  S
C3318      C3319   1.403       .  A
C3319      C3320   1.394       .  A
C3319      F3326   1.354       .  S
C3320      C3321   1.406       .  A
C3320      F3325   1.358       .  S
C3321      C3322   1.406       .  A
C3322      F3323   1.358       .  S
C3327      C3328   1.407       .  A
C3327      C3332   1.394       .  A
C3327      F3334   1.355       .  S
C3328      C3329   1.418       .  A
C3329      C3330   1.400       .  A
C3329      F3336   1.358       .  S
C3330      C3331   1.405       .  A
C3330      F3335   1.359       .  S
C3331      C3332   1.407       .  A
C3332      F3333   1.356       .  S
C3337      C3338   1.405       .  A
C3337      C3342   1.399       .  A
C3337      F3344   1.358       .  S
C3338      C3339   1.403       .  A
C3339      C3340   1.397       .  A
C3339      F3346   1.356       .  S
C3340      C3341   1.408       .  A
C3340      F3345   1.358       .  S
C3341      C3342   1.406       .  A
C3342      F3343   1.358       .  S
C3347      C3348   1.403       .  A
C3347      C3352   1.395       .  A
C3347      F3354   1.356       .  S
C3348      C3349   1.403       .  A
C3349      C3350   1.395       .  A
C3349      F3356   1.358       .  S
C3350      C3351   1.406       .  A
C3350      F3355   1.358       .  S
C3351      C3352   1.406       .  A
C3352      F3353   1.358       .  S
C3357      C3358   1.407       .  A
C3357      C3362   1.401       .  A
C3357      F3364   1.358       .  S
C3358      C3359   1.406       .  A
C3359      C3360   1.391       .  A
C3359      F3366   1.358       .  S
C3360      C3361   1.401       .  A
C3360      F3365   1.355       .  S
C3361      C3362   1.406       .  A
C3362      F3363   1.357       .  S
C3367      C3368   1.408       .  A
C3367      C3372   1.394       .  A
C3367      F3374   1.358       .  S
C3368      C3369   1.405       .  A
C3369      C3370   1.400       .  A
C3369      F3376   1.357       .  S
C3370      C3371   1.405       .  A
C3370      F3375   1.357       .  S
C3371      C3372   1.402       .  A
C3372      F3373   1.356       .  S
C3377      C3378   1.403       .  A
C3377      C3382   1.404       .  A
C3377      F3384   1.357       .  S
C3378      C3379   1.403       .  A
C3379      C3380   1.401       .  A
C3379      F3386   1.358       .  S
C3380      C3381   1.414       .  A
C3380      F3385   1.358       .  S
C3381      C3382   1.414       .  A
C3382      F3383   1.357       .  S
C3387      C3388   1.411       .  A
C3387      C3392   1.403       .  A
C3387      F3394   1.358       .  S
C3388      C3389   1.411       .  A
C3389      C3390   1.397       .  A
C3389      F3396   1.358       .  S
C3390      C3391   1.401       .  A
C3390      F3395   1.357       .  S
C3391      C3392   1.404       .  A
C3392      F3393   1.358       .  S
C3397      C3398   1.404       .  A
C3397      C3402   1.400       .  A
C3397      F3404   1.358       .  S
C3398      C3399   1.400       .  A
C3399      C3400   1.395       .  A
C3399      F3406   1.357       .  S
C3400      C3401   1.410       .  A
C3400      F3405   1.358       .  S
C3401      C3402   1.409       .  A
C3402      F3403   1.358       .  S
C3407      C3408   1.403       .  A
C3407      C3412   1.399       .  A
C3407      F3414   1.358       .  S
C3408      C3409   1.405       .  A
C3409      C3410   1.402       .  A
C3409      F3416   1.357       .  S
C3410      C3411   1.407       .  A
C3410      F3415   1.357       .  S
C3411      C3412   1.410       .  A
C3412      F3413   1.358       .  S
C3417      C3418   1.400       .  A
C3417      C3422   1.399       .  A
C3417      F3424   1.358       .  S
C3418      C3419   1.414       .  A
C3419      C3420   1.407       .  A
C3419      F3426   1.358       .  S
C3420      C3421   1.406       .  A
C3420      F3425   1.357       .  S
C3421      C3422   1.417       .  A
C3422      F3423   1.358       .  S
C3427      C3428   1.419       .  A
C3427      C3432   1.395       .  A
C3427      F3434   1.358       .  S
C3428      C3429   1.407       .  A
C3429      C3430   1.400       .  A
C3429      F3436   1.358       .  S
C3430      C3431   1.410       .  A
C3430      F3435   1.358       .  S
C3431      C3432   1.399       .  A
C3432      F3433   1.358       .  S
C3437      C3438   1.413       .  A
C3437      C3442   1.402       .  A
C3437      F3444   1.358       .  S
C3438      C3439   1.400       .  A
C3439      C3440   1.391       .  A
C3439      F3446   1.358       .  S
C3440      C3441   1.413       .  A
C3440      F3445   1.359       .  S
C3441      C3442   1.403       .  A
C3442      F3443   1.358       .  S
C3447      C3448   1.410       .  A
C3447      C3452   1.405       .  A
C3447      F3454   1.358       .  S
C3448      C3449   1.406       .  A
C3449      C3450   1.401       .  A
C3449      F3456   1.358       .  S
C3450      C3451   1.410       .  A
C3450      F3455   1.358       .  S
C3451      C3452   1.408       .  A
C3452      F3453   1.357       .  S
C3457      C3458   1.409       .  A
C3457      C3462   1.399       .  A
C3457      F3464   1.358       .  S
C3458      C3459   1.405       .  A
C3459      C3460   1.403       .  A
C3459      F3466   1.358       .  S
C3460      C3461   1.407       .  A
C3460      F3465   1.358       .  S
C3461      C3462   1.403       .  A
C3462      F3463   1.358       .  S
C3467      C3468   1.403       .  A
C3467      C3472   1.402       .  A
C3467      F3474   1.358       .  S
C3468      C3469   1.405       .  A
C3469      C3470   1.397       .  A
C3469      F3476   1.358       .  S
C3470      C3471   1.405       .  A
C3470      F3475   1.358       .  S
C3471      C3472   1.410       .  A
C3472      F3473   1.357       .  S
C3477      C3478   1.404       .  A
C3477      C3482   1.400       .  A
C3477      F3484   1.358       .  S
C3478      C3479   1.402       .  A
C3479      C3480   1.394       .  A
C3479      F3486   1.358       .  S
C3480      C3481   1.404       .  A
C3480      F3485   1.358       .  S
C3481      C3482   1.405       .  A
C3482      F3483   1.357       .  S
C3487      C3488   1.404       .  A
C3487      C3492   1.404       .  A
C3487      F3494   1.358       .  S
C3488      C3489   1.409       .  A
C3489      C3490   1.400       .  A
C3489      F3496   1.358       .  S
C3490      C3491   1.406       .  A
C3490      F3495   1.358       .  S
C3491      C3492   1.413       .  A
C3492      F3493   1.358       .  S
C3497      C3498   1.409       .  A
C3497      C3502   1.409       .  A
C3497      F3504   1.357       .  S
C3498      C3499   1.415       .  A
C3499      C3500   1.397       .  A
C3499      F3506   1.358       .  S
C3500      C3501   1.401       .  A
C3500      F3505   1.358       .  S
C3501      C3502   1.411       .  A
C3502      F3503   1.357       .  S
C3507      C3508   1.404       .  A
C3507      C3512   1.394       .  A
C3507      F3514   1.358       .  S
C3508      C3509   1.409       .  A
C3509      C3510   1.403       .  A
C3509      F3516   1.357       .  S
C3510      C3511   1.405       .  A
C3510      F3515   1.358       .  S
C3511      C3512   1.407       .  A
C3512      F3513   1.359       .  S
C3517      C3518   1.399       .  A
C3517      C3522   1.396       .  A
C3517      F3524   1.357       .  S
C3518      C3519   1.407       .  A
C3519      C3520   1.400       .  A
C3519      F3526   1.358       .  S
C3520      C3521   1.408       .  A
C3520      F3525   1.357       .  S
C3521      C3522   1.418       .  A
C3522      F3523   1.358       .  S
C3527      C3528   1.416       .  A
C3527      C3532   1.397       .  A
C3527      F3534   1.358       .  S
C3528      C3529   1.406       .  A
C3529      C3530   1.404       .  A
C3529      F3536   1.357       .  S
C3530      C3531   1.410       .  A
C3530      F3535   1.358       .  S
C3531      C3532   1.400       .  A
C3532      F3533   1.358       .  S
