geometry optimzed in LAMMPS
_audit_creation_date              2020-11-30 
_audit_creation_method            'lammps2cif' 
_symmetry_space_group_name_H-M    'P1' 
_symmetry_Int_Tables_number       1 
_symmetry_cell_setting            triclinic 
loop_ 
_symmetry_equiv_pos_as_xyz 
  x,y,z 
_cell_length_a                    52.60100187 
_cell_length_b                    52.86934249282008 
_cell_length_c                    30.21576704913953 
_cell_angle_alpha                 89.99108775727039 
_cell_angle_beta                  90.29743647615375 
_cell_angle_gamma                 120.52545026308549 
loop_ 
_atom_site_label 
_atom_site_type_symbol 
_atom_site_fract_x 
_atom_site_fract_y 
_atom_site_fract_z 
_atom_site_charge 
C1          C  0.23245210  0.21191774  0.29535895     0.80600
N2          N  0.25528254  0.23501112  0.31663570    -0.77700
C3          C  0.27790598  0.25673506  0.29340515     0.83100
N4          N  0.27717644  0.25522139  0.24852822    -0.77600
C5          C  0.25437273  0.23249287  0.22679538     0.83200
N6          N  0.23212345  0.21081687  0.25046786    -0.79300
C7          C  0.22507415  0.22492108  0.82498958     0.80600
N8          N  0.24851403  0.24707297  0.80397954    -0.77700
C9          C  0.27153249  0.26882993  0.82661067     0.83100
N10         N  0.27152973  0.26825206  0.87151932    -0.77600
C11         C  0.24845411  0.24596807  0.89326634     0.83200
N12         N  0.22532931  0.22442499  0.87000887    -0.79300
C13         C  0.24960052  0.48843067  0.28708489     0.80600
N14         N  0.24803601  0.48470445  0.24232122    -0.77700
C15         C  0.22473271  0.48219337  0.21868756     0.83100
N16         N  0.20278562  0.48361113  0.23991666    -0.77600
C17         C  0.20408982  0.48743643  0.28441382     0.83200
N18         N  0.22722792  0.48952423  0.30758711    -0.79300
C19         C  0.24740276  0.47419468  0.81544817     0.80600
N20         N  0.22513713  0.47510221  0.79366761    -0.77700
C21         C  0.20186754  0.47324567  0.81632946     0.83100
N22         N  0.20171712  0.47092345  0.86117909    -0.77600
C23         C  0.22406863  0.47061448  0.88341161     0.83200
N24         N  0.24677284  0.47197560  0.86020820    -0.79300
C25         C  0.48894434  0.23537965  0.29084175     0.80600
N26         N  0.48947493  0.23706132  0.24585815    -0.77700
C27         C  0.48781333  0.21502503  0.22038724     0.83100
N28         N  0.48601933  0.19114045  0.24043105    -0.77600
C29         C  0.48529728  0.18891879  0.28520078     0.83200
N30         N  0.48651719  0.21096714  0.30994032    -0.79300
C31         C  0.47646874  0.22904694  0.81404772     0.80600
N32         N  0.47737304  0.23118256  0.85896852    -0.77700
C33         C  0.47994530  0.21143221  0.88459980     0.83100
N34         N  0.48104737  0.18890817  0.86494652    -0.77600
C35         C  0.48024493  0.18644555  0.82024975     0.83200
N36         N  0.47829992  0.20670008  0.79501639    -0.79300
O37         O  0.42210570  0.00451196  0.50776836    -0.87800
C38         C  0.07526547  0.06392492  0.62039712     1.12300
O39         O  0.45694759  0.47793368  0.55154956    -1.35600
O40         O  0.05447648  0.06393460  0.50392871    -0.89200
O41         O  0.39767965  0.45599680  0.50026904    -0.89900
O42         O  0.46108389  0.45015507  0.45760466    -0.78700
O43         O  0.48886085  0.03564325  0.51298578    -1.00800
C44         C  0.04405772  0.47863006  0.48044190     1.22300
O45         O  0.48626464  0.44614058  0.55416969    -1.35700
Mn46       Mn  0.48523202  0.47619037  0.60218215     1.82100
O47         O  0.02197771  0.47942949  0.46649682    -0.77800
O48         O  0.08046367  0.04148811  0.51505896    -0.87200
C49         C  0.03604670  0.47401986  0.64364588     1.13400
C50         C  0.07597773  0.06013801  0.49519722     1.08100
O51         O  0.45212464  0.44504071  0.64270278    -0.78700
O52         O  0.01866834  0.00738245  0.55786877    -1.32400
O53         O  0.42690669  0.41869337  0.58849597    -0.97900
C54         C  0.48745936  0.39066233  0.49156684     1.06900
Mn55       Mn  0.05984035  0.00861823  0.56332513     1.48600
O56         O  0.46285061  0.38923260  0.49830969    -0.87100
Mn57       Mn  0.41447463  0.43929942  0.54761241     1.49600
O58         O  0.42371062  0.00214789  0.60445977    -0.91000
C59         C  0.48937210  0.03182508  0.47335742     1.20000
C60         C  0.40212395  0.47730307  0.61561595     1.12100
Mn61       Mn  0.48948993  0.47854584  0.50694884     1.81000
O62         O  0.04284553  0.47462240  0.60465176    -0.96200
Mn63       Mn  0.45578318  0.01752092  0.55466845     1.49300
C64         C  0.40101384  0.48102289  0.49140255     1.08600
Mn65       Mn  0.02456327  0.44227387  0.56003749     1.49900
C66         C  0.48014146  0.38553980  0.61198318     1.11500
O67         O  0.42944786  0.42171518  0.50438993    -1.02000
O68         O  0.07701337  0.04115636  0.61276148    -0.91600
C69         C  0.43659409  0.42794585  0.46554651     1.22800
O70         O  0.04603372  0.47637943  0.52043596    -1.02400
O71         O  0.05622047  0.06813233  0.60116908    -0.89800
O72         O  0.00571860  0.40796382  0.60622905    -0.89400
O73         O  0.39650310  0.45311020  0.59790705    -0.89400
Mn74       Mn  0.02248308  0.04918776  0.55408911     1.47900
O75         O  0.01287721  0.47435003  0.65167244    -0.77900
C76         C  0.42979452  0.42223931  0.62858611     1.15900
O77         O  0.49129770  0.01007841  0.46162390    -0.76600
O78         O  0.48477169  0.00648707  0.64726744    -0.76200
Mn79       Mn  0.44612761  0.40514330  0.54673291     1.51100
O80         O  0.01126630  0.40985382  0.51045893    -0.88600
O81         O  0.48931545  0.03538440  0.59580630    -0.96100
O82         O  0.45722342  0.38315654  0.59362136    -0.91100
C83         C  0.48726429  0.03039507  0.63537898     1.13700
C84         C  0.49265390  0.07388898  0.74035347    -0.05000
C85         C  0.48302725  0.09273499  0.72444044     0.09100
C86         C  0.47236887  0.08941532  0.68077336    -0.02400
C87         C  0.47381789  0.06934056  0.65174820    -0.00700
C88         C  0.48425421  0.05066089  0.66702294    -0.04300
C89         C  0.49228057  0.05224787  0.71232661     0.02700
C90         C  0.48423616  0.11653401  0.75298157     0.09600
C91         C  0.45987907  0.10693016  0.66567185     0.35500
C92         C  0.00035031  0.03189945  0.73051330     0.38900
C93         C  0.00551271  0.14623242  0.74457596    -0.04700
C94         C  0.00486576  0.16892199  0.76801308     0.02500
C95         C  0.48233073  0.16226737  0.79891075    -0.04300
C96         C  0.46149885  0.13257620  0.80831748    -0.00500
C97         C  0.46252831  0.10977329  0.78551468    -0.03100
C98         C  0.02740828  0.15378151  0.71036077     0.36200
C99         C  0.43820693  0.12546112  0.83999869     0.39800
C100        C  0.02784418  0.19921253  0.76088382     0.38900
C101        C  0.44050912  0.07935876  0.79411538     0.35900
C102        C  0.50344399  0.07714829  0.78546431     0.36600
C103        C  0.46473982  0.06867726  0.60607410     0.39800
N104        N  0.04629936  0.22332433  0.75542477    -0.38300
N105        N  0.04486460  0.16075320  0.68277184    -0.39800
N106        N  0.41959342  0.11978030  0.86524254    -0.37600
N107        N  0.42303319  0.05506735  0.80094232    -0.40000
N108        N  0.44981187  0.12081272  0.65386185    -0.39800
N109        N  0.45764998  0.06872890  0.56975821    -0.37400
N110        N  0.00612695  0.01528013  0.74551008    -0.38400
N111        N  0.01210270  0.07976880  0.82144169    -0.40100
C112        C  0.45814103  0.26412749  0.71678145    -0.05000
C113        C  0.47123954  0.29358789  0.73078633     0.09100
C114        C  0.48442067  0.30161106  0.77304032    -0.02400
C115        C  0.48643134  0.28085357  0.80004388    -0.00700
C116        C  0.47389801  0.25117421  0.78586501    -0.04300
C117        C  0.45901488  0.24293315  0.74427511     0.02700
C118        C  0.47300459  0.31664332  0.69977823     0.09600
C119        C  0.99599662  0.33148340  0.78864084     0.35500
C120        C  0.44398184  0.21256653  0.72954628     0.38900
C121        C  0.44830063  0.31975844  0.69219636    -0.04700
C122        C  0.44995366  0.34091491  0.66186319     0.02500
C123        C  0.47705287  0.36067757  0.64069776    -0.04300
C124        C  0.00142402  0.35637717  0.64719790    -0.00500
C125        C  0.99939105  0.33474230  0.67677897    -0.03100
C126        C  0.42118639  0.30127865  0.71614144     0.36200
C127        C  0.02834150  0.37302965  0.62192983     0.39800
C128        C  0.42320046  0.34101811  0.65109450     0.38900
C129        C  0.02457034  0.33091090  0.68354852     0.35900
C130        C  0.44390586  0.25570587  0.67368342     0.36600
C131        C  0.00271841  0.29079840  0.84140757     0.39800
N132        N  0.40173546  0.34051408  0.64093972    -0.38300
N133        N  0.39967056  0.28660098  0.73547979    -0.39800
N134        N  0.04977062  0.38612609  0.60165939    -0.37600
N135        N  0.04461566  0.32783725  0.68918464    -0.40000
N136        N  0.00496264  0.35524704  0.80108824    -0.39800
N137        N  0.01580427  0.29887940  0.87433628    -0.37400
N138        N  0.43199385  0.18840531  0.71759089    -0.38400
N139        N  0.43247734  0.24904472  0.63935444    -0.40100
C140        C  0.99940700  0.10330370  0.42405950    -0.05000
C141        C  0.48279824  0.09327685  0.38457661     0.09100
C142        C  0.47026327  0.06347748  0.37235067    -0.02400
C143        C  0.47405849  0.04381271  0.39969656    -0.00700
C144        C  0.48888287  0.05330441  0.44107121    -0.04300
C145        C  0.00197715  0.08351941  0.45256323     0.02700
C146        C  0.48024612  0.11487571  0.35511116     0.09600
C147        C  0.45290362  0.05293483  0.33201977     0.35500
C148        C  0.01862850  0.09483645  0.49341411     0.38900
C149        C  0.99917131  0.12703995  0.31840311    -0.04700
C150        C  0.00064086  0.15092896  0.29501882     0.02500
C151        C  0.48244424  0.16232028  0.30727355    -0.04300
C152        C  0.46206652  0.14877704  0.34207481    -0.00500
C153        C  0.46143182  0.12568498  0.36645677    -0.03100
C154        C  0.01798671  0.11560227  0.30576063     0.36200
C155        C  0.44135296  0.15836421  0.35263622     0.39800
C156        C  0.02219142  0.16481254  0.26010402     0.38900
C157        C  0.44194913  0.11399545  0.40414728     0.35900
C158        C  0.01416289  0.13432746  0.43515005     0.36600
C159        C  0.46268329  0.01386255  0.38494978     0.39800
N160        N  0.03950535  0.17596416  0.23241591    -0.38300
N161        N  0.03278581  0.10623972  0.29562793    -0.39800
N162        N  0.42481076  0.16597635  0.36091739    -0.37600
N163        N  0.42611765  0.10579188  0.43404222    -0.40000
N164        N  0.43890625  0.04445610  0.29994930    -0.39800
N165        N  0.45433626  0.49017640  0.37266065    -0.37400
N166        N  0.03191243  0.10431505  0.52590027    -0.38400
N167        N  0.02597099  0.15909912  0.44364378    -0.40100
C168        C  0.49849948  0.28382903  0.39189085    -0.05000
C169        C  0.48856066  0.30219264  0.37524037     0.09100
C170        C  0.48065379  0.30024540  0.33025647    -0.02400
C171        C  0.48068312  0.27868207  0.30257668    -0.00700
C172        C  0.49003998  0.25946614  0.31923487    -0.04300
C173        C  0.50009467  0.26324056  0.36398716     0.02700
C174        C  0.48811856  0.32485758  0.40467737     0.09600
C175        C  0.47339605  0.32122366  0.31208743     0.35500
C176        C  0.51360226  0.24721158  0.38139263     0.38900
C177        C  0.01425416  0.35177656  0.41224708    -0.04700
C178        C  0.01435441  0.37314746  0.44047916     0.02500
C179        C  0.48796403  0.36799271  0.46148015    -0.04300
C180        C  0.46200431  0.33997336  0.45524833    -0.00500
C181        C  0.46208411  0.31888860  0.42652156    -0.03100
C182        C  0.04136180  0.35696785  0.39162686     0.36200
C183        C  0.43561906  0.33156081  0.48086018     0.39800
C184        C  0.04222663  0.39973235  0.44870803     0.38900
C185        C  0.43548141  0.29053038  0.42035898     0.35900
C186        C  0.50774657  0.28665625  0.43787695     0.36600
C187        C  0.47075496  0.27659842  0.25711543     0.39800
N188        N  0.06504224  0.42028338  0.45541913    -0.38300
N189        N  0.06279099  0.36056337  0.37526943    -0.39800
N190        N  0.41477591  0.32480195  0.50180440    -0.37600
N191        N  0.41424979  0.26793064  0.41549231    -0.40000
N192        N  0.46810006  0.33823002  0.29728153    -0.39800
N193        N  0.46292754  0.27524767  0.22087014    -0.37400
N194        N  0.52457314  0.23464652  0.39541349    -0.38400
N195        N  0.51517629  0.28902709  0.47450264    -0.40100
C196        C  0.50463597  0.21231569  0.00393420    -0.05000
C197        C  0.48503066  0.21803375  0.02747230     0.09100
C198        C  0.46464089  0.22295327  0.00420653    -0.02400
C199        C  0.46337949  0.22154061  0.95752458    -0.00700
C200        C  0.48229736  0.21472729  0.93373770    -0.04300
C201        C  0.50335067  0.21067596  0.95731410     0.02700
C202        C  0.48515963  0.21773523  0.07700804     0.09600
C203        C  0.44458281  0.22895797  0.02854882     0.35500
C204        C  0.52437392  0.20563864  0.93376549     0.38900
C205        C  0.00366547  0.24356588  0.10110791    -0.04700
C206        C  0.00440167  0.24295501  0.14785269     0.02500
C207        C  0.48659616  0.21629094  0.17093944    -0.04300
C208        C  0.46738868  0.19059565  0.14632591    -0.00500
C209        C  0.46691226  0.19135707  0.09968347    -0.03100
C210        C  0.02214348  0.27073816  0.07752682     0.36200
C211        C  0.44711859  0.16344583  0.16869664     0.39800
C212        C  0.02402475  0.26978955  0.17174821     0.38900
C213        C  0.44754941  0.16489499  0.07474492     0.35900
C214        C  0.52606839  0.20794499  0.02792835     0.36600
C215        C  0.44195982  0.22630047  0.93429572     0.39800
N216        N  0.03957221  0.29132083  0.19062081    -0.38300
N217        N  0.03684528  0.29235349  0.05854570    -0.39800
N218        N  0.43090662  0.14177422  0.18646002    -0.37600
N219        N  0.43213957  0.14384367  0.05476105    -0.40000
N220        N  0.42854924  0.23367641  0.04803803    -0.39800
N221        N  0.42500653  0.23028731  0.91575259    -0.37400
N222        N  0.54114535  0.20161340  0.91503015    -0.38400
N223        N  0.54316625  0.20451362  0.04713933    -0.40100
C224        C  0.32013712  0.00263917  0.75441706    -0.05000
C225        C  0.31894315  0.47615150  0.74294451     0.09100
C226        C  0.29487936  0.44915259  0.75710302    -0.02400
C227        C  0.27155560  0.44857190  0.78095210    -0.00700
C228        C  0.27210447  0.47497273  0.79067591    -0.04300
C229        C  0.29668101  0.00204356  0.77793756     0.02700
C230        C  0.34084586  0.47648851  0.71097451     0.09600
C231        C  0.29387434  0.42194708  0.74617980     0.35500
C232        C  0.29765873  0.02925357  0.78865518     0.38900
C233        C  0.36567686  0.47513016  0.72565807    -0.04700
C234        C  0.38576350  0.47514938  0.69460251     0.02500
C235        C  0.38121271  0.47680712  0.64885260    -0.04300
C236        C  0.35666025  0.47869192  0.63440402    -0.00500
C237        C  0.33640498  0.47815820  0.66524447    -0.03100
C238        C  0.37063664  0.97399029  0.77263350     0.36200
C239        C  0.35243603  0.48187010  0.58773421     0.39800
C240        C  0.41123119  0.97378749  0.70964769     0.38900
C241        C  0.31077813  0.47925597  0.64994307     0.35900
C242        C  0.34542386  0.03045908  0.74144791     0.36600
C243        C  0.24657618  0.42073454  0.79457057     0.39800
N244        N  0.43157663  0.97276222  0.72181201    -0.38300
N245        N  0.37465248  0.97312082  0.81014996    -0.39800
N246        N  0.34873612  0.48475850  0.55076312    -0.37600
N247        N  0.29028256  0.48007885  0.63794149    -0.40000
N248        N  0.29317875  0.40028521  0.73747935    -0.39800
N249        N  0.22658758  0.39854872  0.80540928    -0.37400
N250        N  0.29839530  0.05096368  0.79713397    -0.38400
N251        N  0.36571065  0.05259347  0.73116154    -0.40100
C252        C  0.10305662  0.99991679  0.71804766    -0.05000
C253        C  0.10229260  0.47321213  0.72633449     0.09100
C254        C  0.07578202  0.44658420  0.71760500    -0.02400
C255        C  0.05202601  0.44690415  0.69593371    -0.00700
C256        C  0.05541635  0.47344994  0.67990964    -0.04300
C257        C  0.07871735  0.99965928  0.69757371     0.02700
C258        C  0.12777755  0.47310567  0.74925528     0.09600
C259        C  0.07232898  0.41907278  0.73319915     0.35500
C260        C  0.07338529  0.02330244  0.70684201     0.38900
C261        C  0.13420524  0.48156740  0.79404425    -0.04700
C262        C  0.15897756  0.48300807  0.81509764     0.02500
C263        C  0.17658010  0.47361727  0.79268747    -0.04300
C264        C  0.16909702  0.46390277  0.74801535    -0.00500
C265        C  0.14541345  0.46442988  0.72631729    -0.03100
C266        C  0.11489299  0.98845583  0.81885729     0.36200
C267        C  0.18484607  0.45227215  0.72420422     0.39800
C268        C  0.16647994  0.99518232  0.85950640     0.38900
C269        C  0.13901840  0.45589578  0.68012195     0.35900
C270        C  0.12828595  0.02753713  0.73216726     0.36600
C271        C  0.02259355  0.42236274  0.70186512     0.39800
N272        N  0.17230517  0.00497598  0.89489232    -0.38300
N273        N  0.09942108  0.99387659  0.83850334    -0.39800
N274        N  0.19724485  0.44287402  0.70508028    -0.37600
N275        N  0.13385653  0.44910266  0.64327872    -0.40000
N276        N  0.06958156  0.39715715  0.74581206    -0.39800
N277        N  0.99924814  0.40344464  0.71072788    -0.37400
N278        N  0.06844398  0.04129799  0.71788229    -0.38400
N279        N  0.14842292  0.04947445  0.74380451    -0.40100
C280        C  0.30094580  0.49984671  0.38574097    -0.05000
C281        C  0.31707141  0.48718129  0.37002016     0.09100
C282        C  0.31340122  0.47742395  0.32588986    -0.02400
C283        C  0.29273604  0.47920238  0.29782055    -0.00700
C284        C  0.27475246  0.49018002  0.31418612    -0.04300
C285        C  0.28036156  0.50185706  0.35808647     0.02700
C286        C  0.33876492  0.48521072  0.40003567     0.09600
C287        C  0.33109217  0.46552601  0.30945458     0.35500
C288        C  0.26622821  0.51726668  0.37525600     0.38900
C289        C  0.33039844  0.45929039  0.42386732    -0.04700
C290        C  0.35011159  0.45806464  0.45454421     0.02500
C291        C  0.37894109  0.48287503  0.46126290    -0.04300
C292        C  0.38614331  0.50944895  0.43914560    -0.00500
C293        C  0.36667349  0.51019330  0.40759333    -0.03100
C294        C  0.30119593  0.43388558  0.41702404     0.36200
C295        C  0.41246824  0.03671202  0.45097559     0.39800
C296        C  0.33985175  0.43144523  0.48022009     0.38900
C297        C  0.37514443  0.03685917  0.38287022     0.35900
C298        C  0.30566151  0.51090450  0.43087481     0.36600
C299        C  0.29101560  0.47022086  0.25204692     0.39800
N300        N  0.33137035  0.41014793  0.50061995    -0.38300
N301        N  0.27791715  0.41364482  0.41148297    -0.39800
N302        N  0.43305054  0.05827118  0.46251867    -0.37600
N303        N  0.38156497  0.05785212  0.36268957    -0.40000
N304        N  0.34521266  0.45602429  0.29649717    -0.39800
N305        N  0.29051521  0.46347746  0.21547069    -0.37400
N306        N  0.25544420  0.52973485  0.39005638    -0.38400
N307        N  0.30952492  0.51975291  0.46679129    -0.40100
C308        C  0.12968922  0.46422825  0.33586556    -0.05000
C309        C  0.13642378  0.48930082  0.36141159     0.09100
C310        C  0.16475607  0.51460011  0.35858005    -0.02400
C311        C  0.18642949  0.51449272  0.33142281    -0.00700
C312        C  0.18022920  0.48878512  0.30814350    -0.04300
C313        C  0.15159183  0.46388356  0.30960595     0.02700
C314        C  0.11375924  0.48869493  0.39198064     0.09600
C315        C  0.17166601  0.04063095  0.38408460     0.35500
C316        C  0.14486995  0.43759116  0.28506955     0.38900
C317        C  0.11704008  0.48758909  0.43812421    -0.04700
C318        C  0.09517946  0.48576470  0.46701950     0.02500
C319        C  0.06844204  0.48277850  0.44986555    -0.04300
C320        C  0.06562799  0.48430574  0.40312510    -0.00500
C321        C  0.08857844  0.48818720  0.37478461    -0.03100
C322        C  0.14271084  0.48751454  0.45591827     0.36200
C323        C  0.03912581  0.48145011  0.38321968     0.39800
C324        C  0.10058451  0.48645899  0.51435625     0.38900
C325        C  0.08627423  0.49153662  0.32747472     0.35900
C326        C  0.10017809  0.43874372  0.33675873     0.36600
C327        C  0.21480433  0.04117007  0.32625227     0.39800
N328        N  0.10513013  0.48709501  0.55197705    -0.38300
N329        N  0.16316658  0.48745584  0.47010703    -0.39800
N330        N  0.01803183  0.47908514  0.36698110    -0.37600
N331        N  0.08449510  0.49419656  0.28977525    -0.40000
N332        N  0.17711202  0.06118834  0.40486079    -0.39800
N333        N  0.23730948  0.06256131  0.32184146    -0.37400
N334        N  0.13952390  0.41663803  0.26546776    -0.38400
N335        N  0.07638259  0.41879270  0.33695481    -0.40100
C336        C  0.22193317  0.49714537  0.09600028    -0.05000
C337        C  0.22337496  0.47369161  0.07631718     0.09100
C338        C  0.22450845  0.45254189  0.10347336    -0.02400
C339        C  0.22441603  0.45496270  0.15004175    -0.00700
C340        C  0.22364393  0.47882065  0.16974394    -0.04300
C341        C  0.22192688  0.49963846  0.14247890     0.02700
C342        C  0.22391286  0.47157297  0.02685163     0.09600
C343        C  0.22606301  0.42845091  0.08339827     0.35500
C344        C  0.22072152  0.02403567  0.16218970     0.38900
C345        C  0.25003874  0.49015302  0.00349703    -0.04700
C346        C  0.25020068  0.48969125  0.95678788     0.02500
C347        C  0.22424667  0.47017655  0.93285813    -0.04300
C348        C  0.19819756  0.45116292  0.95651438    -0.00500
C349        C  0.19802593  0.45205916  0.00324120    -0.03100
C350        C  0.27665302  0.51030216  0.02773644     0.36200
C351        C  0.17155536  0.43032872  0.93296898     0.39800
C352        C  0.27679080  0.51052514  0.93356446     0.38900
C353        C  0.17098975  0.43333837  0.02715519     0.35900
C354        C  0.22085002  0.01896867  0.06821883     0.36600
C355        C  0.22388020  0.43224253  0.17761814     0.39800
N356        N  0.29797794  0.52721589  0.91509802    -0.38300
N357        N  0.29779157  0.52644465  0.04718267    -0.39800
N358        N  0.15029467  0.91370337  0.91420718    -0.37600
N359        N  0.14943885  0.41846633  0.04629933    -0.40000
N360        N  0.22731449  0.40924282  0.06734736    -0.39800
N361        N  0.22326915  0.41399970  0.19957287    -0.37400
N362        N  0.21964166  0.04340024  0.17800327    -0.38400
N363        N  0.22022044  0.03645319  0.04594421    -0.40100
C364        C  0.39249061  0.37632291  0.73169764    -0.05000
C365        C  0.36328701  0.35818089  0.71656699     0.09100
C366        C  0.35540162  0.36188738  0.67347941    -0.02400
C367        C  0.37697702  0.38240355  0.64455031    -0.00700
C368        C  0.40659863  0.40082355  0.65943029    -0.04300
C369        C  0.41382886  0.39812930  0.70391222     0.02700
C370        C  0.34065141  0.33530549  0.74631180     0.09600
C371        C  0.32486743  0.34454731  0.65898073     0.35500
C372        C  0.44315959  0.41749819  0.72170208     0.38900
C373        C  0.32910712  0.34364785  0.78180598    -0.04700
C374        C  0.30727785  0.32208731  0.80934755     0.02500
C375        C  0.29683991  0.29200674  0.80150174    -0.04300
C376        C  0.30911595  0.28380307  0.76672824    -0.00500
C377        C  0.33057734  0.30530122  0.73889162    -0.03100
C378        C  0.33917025  0.37447229  0.78912144     0.36200
C379        C  0.30001940  0.25313990  0.75988400     0.39800
C380        C  0.29487234  0.33106636  0.84444459     0.38900
C381        C  0.34157583  0.29620304  0.70193253     0.35900
C382        C  0.40061805  0.37231907  0.77602357     0.36600
C383        C  0.36827712  0.38387088  0.59938516     0.39800
N384        N  0.28540421  0.33890340  0.87219849    -0.38300
N385        N  0.34736726  0.39908950  0.79489578    -0.39800
N386        N  0.29279051  0.22871150  0.75446867    -0.37600
N387        N  0.34941711  0.28801557  0.67241853    -0.40000
N388        N  0.30051508  0.33081028  0.64749215    -0.39800
N389        N  0.36122611  0.38458774  0.56327314    -0.37400
N390        N  0.46627879  0.43329115  0.73650778    -0.38400
N391        N  0.40702160  0.36911494  0.81140338    -0.40100
C392        C  0.17435219  0.18428847  0.72656360    -0.05000
C393        C  0.15814483  0.15533791  0.74250112     0.09100
C394        C  0.16178192  0.14938592  0.78677305    -0.02400
C395        C  0.18308042  0.17190642  0.81429476    -0.00700
C396        C  0.20030913  0.20109621  0.79808682    -0.04300
C397        C  0.19461896  0.20717203  0.75436144     0.02700
C398        C  0.13662978  0.13121699  0.71261705     0.09600
C399        C  0.14324277  0.11995919  0.80400662     0.35500
C400        C  0.20873101  0.23704445  0.73775651     0.38900
C401        C  0.14418538  0.11190852  0.69255913    -0.04700
C402        C  0.12417773  0.08958877  0.66350019     0.02500
C403        C  0.09657260  0.08709436  0.65255144    -0.04300
C404        C  0.08975567  0.10745247  0.67228046    -0.00500
C405        C  0.10927936  0.12867524  0.70288323    -0.03100
C406        C  0.17310862  0.11568668  0.70100320     0.36200
C407        C  0.06311388  0.10757642  0.66059659     0.39800
C408        C  0.13278281  0.06985878  0.64447043     0.38900
C409        C  0.10151107  0.14843682  0.72421257     0.35900
C410        C  0.17009640  0.19052213  0.68118645     0.36600
C411        C  0.18724272  0.16435918  0.85883023     0.39800
N412        N  0.13983650  0.05423024  0.62942787    -0.38300
N413        N  0.19625460  0.11889172  0.70766370    -0.39800
N414        N  0.04226459  0.10813582  0.65000527    -0.37600
N415        N  0.09567553  0.16436136  0.74145789    -0.40000
N416        N  0.12823994  0.09651117  0.81768409    -0.39800
N417        N  0.19012315  0.15793055  0.89431824    -0.37400
N418        N  0.21990478  0.26081597  0.72435658    -0.38400
N419        N  0.16663568  0.19545492  0.64506042    -0.40100
C420        C  0.33635920  0.30317826  0.38058645    -0.05000
C421        C  0.34943753  0.33137272  0.36166070     0.09100
C422        C  0.33972350  0.33504374  0.31981882    -0.02400
C423        C  0.31611134  0.31093885  0.29795722    -0.00700
C424        C  0.30290225  0.28239765  0.31665481    -0.04300
C425        C  0.31378125  0.27866984  0.35775827     0.02700
C426        C  0.37313833  0.35751813  0.38589748     0.09600
C427        C  0.35401072  0.36386244  0.29934877     0.35500
C428        C  0.30267162  0.24958255  0.37613047     0.38900
C429        C  0.40242292  0.36306741  0.38711701    -0.04700
C430        C  0.42484049  0.38862755  0.40827487     0.02500
C431        C  0.41765019  0.40783144  0.42958465    -0.04300
C432        C  0.39042331  0.40534073  0.41974045    -0.00500
C433        C  0.36729936  0.37902190  0.40230708    -0.03100
C434        C  0.40934098  0.34263472  0.36635427     0.36200
C435        C  0.39070887  0.43189143  0.40831663     0.39800
C436        C  0.45553726  0.39786002  0.40152811     0.38900
C437        C  0.33789568  0.37490649  0.39936162     0.35900
C438        C  0.34584450  0.29946018  0.42402885     0.36300
C439        C  0.30496601  0.31610288  0.25694162     0.39800
N440        N  0.48007379  0.40604842  0.39409589    -0.38300
N441        N  0.41436324  0.32592384  0.34986370    -0.39800
N442        N  0.39137998  0.45250120  0.39405396    -0.37600
N443        N  0.31441798  0.37158977  0.39720612    -0.40000
N444        N  0.36540026  0.38687595  0.28319566    -0.39800
N445        N  0.29617395  0.32035013  0.22427527    -0.37400
N446        N  0.29398513  0.22639575  0.39077712    -0.38400
N447        N  0.35319580  0.29640256  0.45878609    -0.40100
C448        C  0.17017459  0.17313317  0.37843848    -0.05000
C449        C  0.16141650  0.14344503  0.37094241     0.09100
C450        C  0.17484353  0.13610277  0.33698271    -0.02400
C451        C  0.19793486  0.15844188  0.31203590    -0.00700
C452        C  0.20767729  0.18831684  0.32086369    -0.04300
C453        C  0.19337039  0.19551958  0.35379876     0.02700
C454        C  0.13961143  0.12028538  0.40125731     0.09600
C455        C  0.16490614  0.10553120  0.32777106     0.35500
C456        C  0.20204330  0.22593020  0.36185508     0.38900
C457        C  0.11002178  0.10172266  0.38800202    -0.04700
C458        C  0.08933999  0.08114807  0.41800996     0.02500
C459        C  0.09795891  0.07961263  0.46186456    -0.04300
C460        C  0.12781556  0.09790216  0.47459907    -0.00500
C461        C  0.14857629  0.11781991  0.44428039    -0.03100
C462        C  0.10086319  0.10416132  0.34363624     0.36200
C463        C  0.13718321  0.09757352  0.51959971     0.39800
C464        C  0.05955677  0.06098189  0.40301616     0.38900
C465        C  0.17922350  0.13635224  0.45761323     0.35900
C466        C  0.15508168  0.18054101  0.41150825     0.36600
C467        C  0.21238309  0.15060814  0.27846528     0.39800
N468        N  0.03609695  0.04485647  0.38976822    -0.38300
N469        N  0.09372511  0.10618336  0.30814634    -0.39800
N470        N  0.14537221  0.09808885  0.55532566    -0.37600
N471        N  0.20364231  0.15120805  0.46815898    -0.40000
N472        N  0.15673757  0.08115736  0.31986614    -0.39800
N473        N  0.22389681  0.14436490  0.25166961    -0.37400
N474        N  0.20899083  0.25018291  0.36834406    -0.38400
N475        N  0.14290732  0.18633180  0.43779630    -0.40100
C476        C  0.24990210  0.26257158  0.01594385    -0.05000
C477        C  0.25226447  0.23942737  0.03487847     0.09100
C478        C  0.25380478  0.21875228  0.00722086    -0.02400
C479        C  0.25331508  0.22140270  0.96086557    -0.00700
C480        C  0.24969230  0.24381290  0.94195490    -0.04300
C481        C  0.24781496  0.26429199  0.96962390     0.02700
C482        C  0.25259312  0.23654157  0.08407117     0.09600
C483        C  0.25572784  0.19466181  0.02657882     0.35500
C484        C  0.24248309  0.28637761  0.95068781     0.38900
C485        C  0.22629078  0.22623697  0.10822792    -0.04700
C486        C  0.22662579  0.22441461  0.15476050     0.02500
C487        C  0.25331621  0.23231216  0.17749716    -0.04300
C488        C  0.27938688  0.24139972  0.15283771    -0.00500
C489        C  0.27910042  0.24401479  0.10644094    -0.03100
C490        C  0.19883512  0.21765022  0.08500888     0.36200
C491        C  0.30642018  0.24719033  0.17488040     0.39800
C492        C  0.19956761  0.21533296  0.17894043     0.38900
C493        C  0.30618881  0.25469102  0.08162423     0.35900
C494        C  0.24982485  0.28470545  0.04423065     0.36600
C495        C  0.25751814  0.20164970  0.93262721     0.39800
N496        N  0.17791799  0.20800414  0.19808840    -0.38300
N497        N  0.17699548  0.21085690  0.06639760    -0.39800
N498        N  0.32792492  0.25167022  0.19245782    -0.37600
N499        N  0.32777866  0.26317783  0.06179270    -0.40000
N500        N  0.25724013  0.17547667  0.04218932    -0.39800
N501        N  0.26115033  0.18606587  0.91011361    -0.37400
N502        N  0.23769146  0.30378455  0.93612672    -0.38400
N503        N  0.24992806  0.30241482  0.06686908    -0.40100
C504        C  0.23245090  0.71192508  0.29535595     0.80600
N505        N  0.25528189  0.73501887  0.31663124    -0.77700
C506        C  0.27790656  0.75674098  0.29339928     0.83100
N507        N  0.27717675  0.75522477  0.24852242    -0.77600
C508        C  0.25437220  0.73249639  0.22679085     0.83200
N509        N  0.23212228  0.71082207  0.25046493    -0.79300
C510        C  0.22507169  0.72492134  0.82498264     0.80600
N511        N  0.24851182  0.74707292  0.80397252    -0.77700
C512        C  0.27153001  0.76883031  0.82660332     0.83100
N513        N  0.27152707  0.76825310  0.87151212    -0.77600
C514        C  0.24845138  0.74596914  0.89325950     0.83200
N515        N  0.22532672  0.72442582  0.87000193    -0.79300
C516        C  0.24961889  0.98845982  0.28707893     0.80600
N517        N  0.24805042  0.98472927  0.24231609    -0.77700
C518        C  0.22474574  0.98221653  0.21868435     0.83100
N519        N  0.20280008  0.98363619  0.23991555    -0.77600
C520        C  0.20410796  0.98746574  0.28441240     0.83200
N521        N  0.22724766  0.98955503  0.30758243    -0.79300
C522        C  0.24740372  0.97419497  0.81544354     0.80600
N523        N  0.22513628  0.97510076  0.79366565    -0.77700
C524        C  0.20186658  0.97324182  0.81633036     0.83100
N525        N  0.20171706  0.97091851  0.86118007    -0.77600
C526        C  0.22407064  0.97061143  0.88340948     0.83200
N527        N  0.24677522  0.97197527  0.86020361    -0.79300
C528        C  0.48894011  0.73537534  0.29084430     0.80600
N529        N  0.48946851  0.73705699  0.24586073    -0.77700
C530        C  0.48780730  0.71502170  0.22038796     0.83100
N531        N  0.48601567  0.69113765  0.24042999    -0.77600
C532        C  0.48529542  0.68891550  0.28519968     0.83200
N533        N  0.48651513  0.71096316  0.30994101    -0.79300
C534        C  0.47646767  0.72904791  0.81404850     0.80600
N535        N  0.47737097  0.73118250  0.85896931    -0.77700
C536        C  0.47994429  0.71143257  0.88460004     0.83100
N537        N  0.48104831  0.68890968  0.86494626    -0.77600
C538        C  0.48024662  0.68644788  0.82024931     0.83200
N539        N  0.47830065  0.70670212  0.79501654    -0.79300
O540        O  0.42210326  0.50450945  0.50776744    -0.87800
C541        C  0.07526473  0.56392355  0.62039038     1.12300
O542        O  0.45694958  0.97793488  0.55154552    -1.35600
O543        O  0.05447516  0.56393371  0.50392317    -0.89200
O544        O  0.39768668  0.95600076  0.50025170    -0.89900
O545        O  0.46109051  0.95015970  0.45759884    -0.78700
O546        O  0.48885931  0.53564190  0.51298341    -1.00800
C547        C  0.04406391  0.97863449  0.48044799     1.22300
O548        O  0.48626663  0.94614204  0.55416659    -1.35700
Mn549      Mn  0.48523217  0.97619024  0.60218001     1.82100
O550        O  0.02198423  0.97943410  0.46650127    -0.77800
O551        O  0.08046180  0.54148637  0.51505006    -0.87200
C552        C  0.03604650  0.97401943  0.64365154     1.13400
C553        C  0.07597622  0.56013716  0.49519029     1.08100
O554        O  0.45212258  0.94503978  0.64269595    -0.78700
O555        O  0.01866649  0.50738139  0.55786371    -1.32400
O556        O  0.42690561  0.91869367  0.58848691    -0.97900
C557        C  0.48746311  0.89066410  0.49156533     1.06900
Mn558      Mn  0.05983853  0.50861680  0.56331752     1.48600
O559        O  0.46285454  0.88923488  0.49830658    -0.87100
Mn560      Mn  0.41447660  0.93930087  0.54759971     1.49600
O561        O  0.42370939  0.50215030  0.60445806    -0.91000
C562        C  0.48936994  0.53182196  0.47335536     1.20000
C563        C  0.40212197  0.97729986  0.61560748     1.12100
Mn564      Mn  0.48949391  0.97854898  0.50694681     1.81000
O565        O  0.04284668  0.97462295  0.60465783    -0.96200
Mn566      Mn  0.45578166  0.51752035  0.55466699     1.49300
C567        C  0.40101999  0.98102746  0.49139266     1.08600
Mn568      Mn  0.02456598  0.94227525  0.56004125     1.49900
C569        C  0.48014038  0.88554009  0.61198132     1.11500
O570        O  0.42945272  0.92171783  0.50438044    -1.02000
O571        O  0.07701342  0.54115562  0.61275307    -0.91600
C572        C  0.43660082  0.92794957  0.46553778     1.22800
O573        O  0.04603787  0.97638206  0.52044212    -1.02400
O574        O  0.05621914  0.56813057  0.60116345    -0.89800
O575        O  0.00571946  0.90796404  0.60623103    -0.89400
O576        O  0.39650015  0.95310918  0.59788970    -0.89400
Mn577      Mn  0.02248180  0.54918694  0.55408365     1.47900
O578        O  0.01287624  0.97434858  0.65167635    -0.77900
C579        C  0.42979215  0.92223932  0.62857732     1.15900
O580        O  0.49129337  0.51007376  0.46162406    -0.76600
O581        O  0.48477208  0.50648816  0.64726743    -0.76200
Mn582      Mn  0.44612957  0.90514496  0.54672675     1.51100
O583        O  0.01127100  0.90985603  0.51046059    -0.88600
O584        O  0.48931394  0.53538419  0.59580484    -0.96100
O585        O  0.45722304  0.88315752  0.59361782    -0.91100
C586        C  0.48726281  0.53039519  0.63537783     1.13700
C587        C  0.49264895  0.57388793  0.74035191    -0.05000
C588        C  0.48302392  0.59273494  0.72443747     0.09100
C589        C  0.47236631  0.58941534  0.68076984    -0.02400
C590        C  0.47381514  0.56934005  0.65174550    -0.00700
C591        C  0.48425112  0.55066032  0.66702127    -0.04300
C592        C  0.49227543  0.55224639  0.71232583     0.02700
C593        C  0.48423353  0.61653462  0.75297802     0.09600
C594        C  0.45987748  0.60693072  0.66566689     0.35500
C595        C  0.00034569  0.53189821  0.73051035     0.38900
C596        C  0.00551126  0.64623260  0.74457164    -0.04700
C597        C  0.00486642  0.66892235  0.76801166     0.02500
C598        C  0.48233121  0.66226911  0.79890939    -0.04300
C599        C  0.46149829  0.63257812  0.80831551    -0.00500
C600        C  0.46252665  0.60977466  0.78551248    -0.03100
C601        C  0.02740564  0.65378126  0.71035469     0.36200
C602        C  0.43820631  0.62546373  0.83999639     0.39800
C603        C  0.02784650  0.69921250  0.76088470     0.38900
C604        C  0.44050798  0.57936030  0.79411561     0.35900
C605        C  0.50343763  0.57714661  0.78546350     0.36600
C606        C  0.46473640  0.56867563  0.60607141     0.39800
N607        N  0.04630318  0.72332393  0.75542780    -0.38300
N608        N  0.04486074  0.66075207  0.68276405    -0.39800
N609        N  0.41959267  0.61978342  0.86523965    -0.37600
N610        N  0.42303288  0.55506897  0.80094495    -0.40000
N611        N  0.44981102  0.62081364  0.65385533    -0.39800
N612        N  0.45764559  0.56872598  0.56975569    -0.37400
N613        N  0.00612113  0.51527829  0.74550810    -0.38400
N614        N  0.01209622  0.57976663  0.82143893    -0.40100
C615        C  0.45813799  0.76412650  0.71678120    -0.05000
C616        C  0.47123325  0.79358644  0.73078727     0.09100
C617        C  0.48441144  0.80160939  0.77304313    -0.02400
C618        C  0.48642356  0.78085280  0.80004710    -0.00700
C619        C  0.47389452  0.75117417  0.78586632    -0.04300
C620        C  0.45901303  0.74293289  0.74427522     0.02700
C621        C  0.47299922  0.81664197  0.69977804     0.09600
C622        C  0.99598728  0.83148105  0.78864556     0.35500
C623        C  0.44398250  0.71256645  0.72954546     0.38900
C624        C  0.44829511  0.81975616  0.69219127    -0.04700
C625        C  0.44994983  0.84091367  0.66185831     0.02500
C626        C  0.47705033  0.86067734  0.64069667    -0.04300
C627        C  0.00142409  0.85637784  0.64720187    -0.00500
C628        C  0.99939045  0.83474309  0.67678380    -0.03100
C629        C  0.42117902  0.80127428  0.71613062     0.36200
C630        C  0.02834266  0.87303108  0.62193662     0.39800
C631        C  0.42319710  0.84101693  0.65108622     0.38900
C632        C  0.02457053  0.83091362  0.68355849     0.35900
C633        C  0.44390523  0.75570472  0.67368175     0.36600
C634        C  0.00270827  0.79079690  0.84141528     0.39800
N635        N  0.40173249  0.84051306  0.64092907    -0.38300
N636        N  0.39966143  0.78659465  0.73546433    -0.39800
N637        N  0.04977265  0.88612804  0.60166812    -0.37600
N638        N  0.04461649  0.82784158  0.68919877    -0.40000
N639        N  0.00495044  0.85524390  0.80109402    -0.39800
N640        N  0.01579017  0.79887773  0.87434748    -0.37400
N641        N  0.43199650  0.68840541  0.71758974    -0.38400
N642        N  0.43247850  0.74904319  0.63935134    -0.40100
C643        C  0.99941203  0.60330229  0.42404479    -0.05000
C644        C  0.48279785  0.59327094  0.38456600     0.09100
C645        C  0.47025893  0.56347015  0.37234574    -0.02400
C646        C  0.47405429  0.54380627  0.39969373    -0.00700
C647        C  0.48888158  0.55330021  0.44106601    -0.04300
C648        C  0.00198032  0.58351813  0.45255130     0.02700
C649        C  0.48024352  0.61486860  0.35510062     0.09600
C650        C  0.45289276  0.55292461  0.33202119     0.35500
C651        C  0.01863218  0.59483605  0.49340152     0.38900
C652        C  0.99917002  0.62703734  0.31839181    -0.04700
C653        C  0.00063988  0.65092766  0.29501075     0.02500
C654        C  0.48244268  0.66231618  0.30726988    -0.04300
C655        C  0.46206582  0.64877231  0.34207208    -0.00500
C656        C  0.46142998  0.62567812  0.36644952    -0.03100
C657        C  0.01798374  0.61559862  0.30574489     0.36200
C658        C  0.44135431  0.65836104  0.35263922     0.39800
C659        C  0.02218949  0.66481165  0.26009481     0.38900
C660        C  0.44194564  0.61398562  0.40413794     0.35900
C661        C  0.01417348  0.63432732  0.43512899     0.36600
C662        C  0.46267320  0.51385370  0.38495389     0.39800
N663        N  0.03950269  0.67596352  0.23240592    -0.38300
N664        N  0.03278151  0.60623522  0.29560861    -0.39800
N665        N  0.42481382  0.66597449  0.36092541    -0.37600
N666        N  0.42611234  0.60577975  0.43403046    -0.40000
N667        N  0.43888935  0.54444310  0.29995653    -0.39800
N668        N  0.45435180  0.99018754  0.37265028    -0.37400
N669        N  0.03191628  0.60431558  0.52588731    -0.38400
N670        N  0.02598626  0.65909997  0.44361707    -0.40100
C671        C  0.49849518  0.78382382  0.39189579    -0.05000
C672        C  0.48856002  0.80219014  0.37524441     0.09100
C673        C  0.48065576  0.80024510  0.33025977    -0.02400
C674        C  0.48068323  0.77868083  0.30257997    -0.00700
C675        C  0.49003617  0.75946177  0.31923880    -0.04300
C676        C  0.50008864  0.76323417  0.36399234     0.02700
C677        C  0.48811929  0.82485591  0.40468102     0.09600
C678        C  0.47340305  0.82122689  0.31209029     0.35500
C679        C  0.51359243  0.74720214  0.38139960     0.38900
C680        C  0.01425441  0.85177857  0.41224270    -0.04700
C681        C  0.01435577  0.87315112  0.44047221     0.02500
C682        C  0.48796688  0.86799351  0.46148020    -0.04300
C683        C  0.46200724  0.83997339  0.45525337    -0.00500
C684        C  0.46208567  0.81888790  0.42652673    -0.03100
C685        C  0.04136043  0.85697025  0.39161619     0.36200
C686        C  0.43562327  0.83156138  0.48086823     0.39800
C687        C  0.04222627  0.89974061  0.44868585     0.38900
C688        C  0.43548160  0.79053095  0.42036283     0.35900
C689        C  0.50774113  0.78665003  0.43788235     0.36600
C690        C  0.47075746  0.77659999  0.25711788     0.39800
N691        N  0.06504125  0.92029615  0.45538229    -0.38300
N692        N  0.06278817  0.86056600  0.37525333    -0.39800
N693        N  0.41478071  0.82480256  0.50181417    -0.37600
N694        N  0.41424853  0.76793268  0.41549400    -0.40000
N695        N  0.46811123  0.83823638  0.29728500    -0.39800
N696        N  0.46293187  0.77525178  0.22087210    -0.37400
N697        N  0.52456040  0.73463468  0.39542207    -0.38400
N698        N  0.51517007  0.78902014  0.47450836    -0.40100
C699        C  0.50463329  0.71232024  0.00393664    -0.05000
C700        C  0.48502275  0.71803187  0.02747277     0.09100
C701        C  0.46462913  0.72294463  0.00420492    -0.02400
C702        C  0.46336971  0.72153228  0.95752296    -0.00700
C703        C  0.48229338  0.71472596  0.93373808    -0.04300
C704        C  0.50334958  0.71068028  0.95731649     0.02700
C705        C  0.48515032  0.71773323  0.07700854     0.09600
C706        C  0.44456513  0.72894198  0.02854507     0.35500
C707        C  0.52437694  0.70564817  0.93376977     0.38900
C708        C  0.00365240  0.74356898  0.10110888    -0.04700
C709        C  0.00438903  0.74295764  0.14785360     0.02500
C710        C  0.48658823  0.71628809  0.17094003    -0.04300
C711        C  0.46738532  0.69059141  0.14632570    -0.00500
C712        C  0.46690819  0.69135333  0.09968328    -0.03100
C713        C  0.02212277  0.77074359  0.07752868     0.36200
C714        C  0.44712039  0.66343911  0.16869531     0.39800
C715        C  0.02400557  0.76979440  0.17174945     0.38900
C716        C  0.44754961  0.66489018  0.07474409     0.35900
C717        C  0.52606962  0.70795661  0.02793299     0.36600
C718        C  0.44194584  0.72628467  0.93429167     0.39800
N719        N  0.03954748  0.79132740  0.19062205    -0.38300
N720        N  0.03681834  0.79236100  0.05854848    -0.39800
N721        N  0.43091257  0.64176549  0.18645771    -0.37600
N722        N  0.43214288  0.64383799  0.05475962    -0.40000
N723        N  0.42852683  0.73365451  0.04803250    -0.39800
N724        N  0.42498912  0.73026533  0.91574647    -0.37400
N725        N  0.54115163  0.70162698  0.91503616    -0.38400
N726        N  0.54317056  0.70453102  0.04714583    -0.40100
C727        C  0.32014242  0.50263894  0.75444102    -0.05000
C728        C  0.31894373  0.97615208  0.74293733     0.09100
C729        C  0.29488527  0.94915418  0.75711036    -0.02400
C730        C  0.27156152  0.94857353  0.78095927    -0.00700
C731        C  0.27210486  0.97497344  0.79066860    -0.04300
C732        C  0.29668644  0.50204331  0.77796160     0.02700
C733        C  0.34084484  0.97648622  0.71096699     0.09600
C734        C  0.29388500  0.92194911  0.74620060     0.35500
C735        C  0.29767020  0.52925406  0.78869623     0.38900
C736        C  0.36568387  0.97514261  0.72565113    -0.04700
C737        C  0.38576911  0.97515947  0.69459510     0.02500
C738        C  0.38120893  0.97680039  0.64884401    -0.04300
C739        C  0.35664577  0.97866588  0.63439416    -0.00500
C740        C  0.33639284  0.97813585  0.66523560    -0.03100
C741        C  0.37062044  0.47396136  0.77263973     0.36200
C742        C  0.35240732  0.98181978  0.58772148     0.39800
C743        C  0.41122048  0.47376819  0.70965512     0.38900
C744        C  0.31075729  0.97921749  0.64993393     0.35900
C745        C  0.34543534  0.53045937  0.74148974     0.36600
C746        C  0.24658681  0.92073661  0.79459031     0.39800
N747        N  0.43156283  0.47273762  0.72182011    -0.38300
N748        N  0.37462875  0.47307889  0.81015577    -0.39800
N749        N  0.34869452  0.98468773  0.55074768    -0.37600
N750        N  0.29025494  0.98002781  0.63793214    -0.40000
N751        N  0.29319280  0.90028761  0.73751017    -0.39800
N752        N  0.22660180  0.89855099  0.80543838    -0.37400
N753        N  0.29841157  0.55096464  0.79718880    -0.38400
N754        N  0.36572702  0.55259426  0.73121772    -0.40100
C755        C  0.10305593  0.49991824  0.71804448    -0.05000
C756        C  0.10229014  0.97320989  0.72634478     0.09100
C757        C  0.07577753  0.94658279  0.71762006    -0.02400
C758        C  0.05202285  0.94690357  0.69594531    -0.00700
C759        C  0.05541537  0.97344941  0.67991688    -0.04300
C760        C  0.07871628  0.49965973  0.69757004     0.02700
C761        C  0.12777518  0.97310239  0.74926417     0.09600
C762        C  0.07232153  0.91907157  0.73322105     0.35500
C763        C  0.07338217  0.52330168  0.70683778     0.38900
C764        C  0.13421130  0.98157459  0.79404861    -0.04700
C765        C  0.15898508  0.98301584  0.81509793     0.02500
C766        C  0.17657847  0.97361297  0.79269134    -0.04300
C767        C  0.16908605  0.96388630  0.74802614    -0.00500
C768        C  0.14540309  0.96441516  0.72632914    -0.03100
C769        C  0.11487966  0.48843881  0.81885298     0.36200
C770        C  0.18482397  0.95224018  0.72422338     0.39800
C771        C  0.16646011  0.49516069  0.85951509     0.38900
C772        C  0.13900069  0.95587137  0.68013822     0.35900
C773        C  0.12828202  0.52753825  0.73217295     0.36600
C774        C  0.02258989  0.92236203  0.70187180     0.39800
N775        N  0.17227481  0.50494287  0.89490856    -0.38300
N776        N  0.09940204  0.49385189  0.83849872    -0.39800
N777        N  0.19721359  0.94282910  0.70510678    -0.37600
N778        N  0.13383286  0.94907073  0.64329832    -0.40000
N779        N  0.06957179  0.89715604  0.74583936    -0.39800
N780        N  0.99924394  0.90344307  0.71073018    -0.37400
N781        N  0.06843891  0.54129611  0.71787661    -0.38400
N782        N  0.14841630  0.54947527  0.74381739    -0.40100
C783        C  0.30095384  0.99985295  0.38574054    -0.05000
C784        C  0.31709075  0.98720374  0.37000451     0.09100
C785        C  0.31343378  0.97746837  0.32586366    -0.02400
C786        C  0.29276909  0.97925068  0.29779826    -0.00700
C787        C  0.27477199  0.99020904  0.31417842    -0.04300
C788        C  0.28036944  0.00186645  0.35809110     0.02700
C789        C  0.33878248  0.98522803  0.40001685     0.09600
C790        C  0.33113846  0.96558980  0.30941350     0.35500
C791        C  0.26622320  0.01725843  0.37528146     0.38900
C792        C  0.33041542  0.95930217  0.42383309    -0.04700
C793        C  0.35012442  0.95807203  0.45451320     0.02500
C794        C  0.37895118  0.98288332  0.46124876    -0.04300
C795        C  0.38615394  0.00946206  0.43914554    -0.00500
C796        C  0.36668741  0.01021148  0.40759216    -0.03100
C797        C  0.30121582  0.93389661  0.41697212     0.36200
C798        C  0.41246133  0.53669970  0.45095979     0.39800
C799        C  0.33986237  0.93144725  0.48017622     0.38900
C800        C  0.37513249  0.53683448  0.38285204     0.35900
C801        C  0.30565862  0.01089136  0.43088517     0.36600
C802        C  0.29106487  0.97029528  0.25201346     0.39800
N803        N  0.33137903  0.91014591  0.50056666    -0.38300
N804        N  0.27793918  0.91365551  0.41141687    -0.39800
N805        N  0.43304688  0.55825976  0.46249165    -0.37600
N806        N  0.38155620  0.55782269  0.36265672    -0.40000
N807        N  0.34527022  0.95610383  0.29644445    -0.39800
N808        N  0.29057699  0.96357295  0.21542900    -0.37400
N809        N  0.25542840  0.02971179  0.39009859    -0.38400
N810        N  0.30951350  0.01972453  0.46681001    -0.40100
C811        C  0.12970772  0.96425096  0.33587291    -0.05000
C812        C  0.13644110  0.98932113  0.36142450     0.09100
C813        C  0.16477353  0.01462078  0.35859725    -0.02400
C814        C  0.18644802  0.01451616  0.33143853    -0.00700
C815        C  0.18024728  0.98881218  0.30814735    -0.04300
C816        C  0.15161005  0.96391018  0.30960721     0.02700
C817        C  0.11377441  0.98871239  0.39199293     0.09600
C818        C  0.17164987  0.54061230  0.38406275     0.35500
C819        C  0.14488829  0.93762045  0.28506320     0.38900
C820        C  0.11705238  0.98760321  0.43813675    -0.04700
C821        C  0.09518805  0.98577274  0.46703031     0.02500
C822        C  0.06845111  0.98278677  0.44987414    -0.04300
C823        C  0.06564020  0.98431785  0.40313375    -0.00500
C824        C  0.08859302  0.98820296  0.37479532    -0.03100
C825        C  0.14272379  0.98753077  0.45593275     0.36200
C826        C  0.03913828  0.98146145  0.38322607     0.39800
C827        C  0.10058780  0.98645833  0.51436764     0.38900
C828        C  0.08629007  0.99155333  0.32748539     0.35900
C829        C  0.10019808  0.93876416  0.33676761     0.36600
C830        C  0.21478316  0.54114768  0.32622283     0.39800
N831        N  0.10512887  0.98708680  0.55198887    -0.38300
N832        N  0.16318006  0.98747397  0.47012334    -0.39800
N833        N  0.01804446  0.97909577  0.36698580    -0.37600
N834        N  0.08451160  0.99421346  0.28978583    -0.40000
N835        N  0.17709714  0.56117107  0.40483631    -0.39800
N836        N  0.23728566  0.56254005  0.32179907    -0.37400
N837        N  0.13954244  0.91666953  0.26545534    -0.38400
N838        N  0.07640396  0.91881084  0.33696572    -0.40100
C839        C  0.22192740  0.99714264  0.09598933    -0.05000
C840        C  0.22338218  0.97369361  0.07631502     0.09100
C841        C  0.22452830  0.95255421  0.10347986    -0.02400
C842        C  0.22443807  0.95498208  0.15004752    -0.00700
C843        C  0.22365241  0.97883534  0.16974104    -0.04300
C844        C  0.22192061  0.99964140  0.14246721     0.02700
C845        C  0.22392103  0.97157013  0.02684966     0.09600
C846        C  0.22609320  0.92846637  0.08341455     0.35500
C847        C  0.22074245  0.52403800  0.16221186     0.38900
C848        C  0.25004205  0.99016128  0.00349185    -0.04700
C849        C  0.25020215  0.98969858  0.95678257     0.02500
C850        C  0.22425118  0.97017350  0.93285576    -0.04300
C851        C  0.19820761  0.95114859  0.95651435    -0.00500
C852        C  0.19803813  0.95204300  0.00324164    -0.03100
C853        C  0.27665286  0.01032255  0.02772789     0.36200
C854        C  0.17156878  0.93030592  0.93297016     0.39800
C855        C  0.27678598  0.01054199  0.93355537     0.38900
C856        C  0.17100834  0.93330532  0.02715860     0.35900
C857        C  0.22086786  0.51898131  0.06823838     0.36600
C858        C  0.22392020  0.93227404  0.17763272     0.39800
N859        N  0.29796787  0.02724020  0.91508535    -0.38300
N860        N  0.29778871  0.02647475  0.04717120    -0.39800
N861        N  0.15027862  0.41373254  0.91420515    -0.37600
N862        N  0.14946279  0.91841868  0.04630539    -0.40000
N863        N  0.22735208  0.90926021  0.06737197    -0.39800
N864        N  0.22332451  0.91404164  0.19959506    -0.37400
N865        N  0.21967457  0.54340678  0.17803455    -0.38400
N866        N  0.22024736  0.53647353  0.04597092    -0.40100
C867        C  0.39248576  0.87632244  0.73168728    -0.05000
C868        C  0.36328257  0.85818014  0.71655513     0.09100
C869        C  0.35539820  0.86188663  0.67346679    -0.02400
C870        C  0.37697406  0.88240370  0.64453896    -0.00700
C871        C  0.40659536  0.90082353  0.65942043    -0.04300
C872        C  0.41382447  0.89812907  0.70390288     0.02700
C873        C  0.34064649  0.83530503  0.74629985     0.09600
C874        C  0.32486457  0.84454554  0.65896578     0.35500
C875        C  0.44315460  0.91749841  0.72169481     0.38900
C876        C  0.32910211  0.84364784  0.78179345    -0.04700
C877        C  0.30727266  0.82208761  0.80933521     0.02500
C878        C  0.29683697  0.79200708  0.80149338    -0.04300
C879        C  0.30911392  0.78380316  0.76672147    -0.00500
C880        C  0.33057333  0.80530074  0.73888185    -0.03100
C881        C  0.33916634  0.87447257  0.78910923     0.36200
C882        C  0.30002052  0.75314034  0.75988225     0.39800
C883        C  0.29486396  0.83106672  0.84442746     0.38900
C884        C  0.34157073  0.79620206  0.70192196     0.35900
C885        C  0.40061219  0.87231873  0.77601406     0.36600
C886        C  0.36827488  0.88387314  0.59937430     0.39800
N887        N  0.28539279  0.83890378  0.87217674    -0.38300
N888        N  0.34736493  0.89909005  0.79488430    -0.39800
N889        N  0.29279456  0.72871235  0.75447121    -0.37600
N890        N  0.34941113  0.78801456  0.67240691    -0.40000
N891        N  0.30051282  0.83080765  0.64747503    -0.39800
N892        N  0.36122431  0.88459212  0.56326268    -0.37400
N893        N  0.46627315  0.93329146  0.73650197    -0.38400
N894        N  0.40701486  0.86911479  0.81139451    -0.40100
C895        C  0.17435389  0.68428691  0.72655338    -0.05000
C896        C  0.15814275  0.65533750  0.74249418     0.09100
C897        C  0.16177507  0.64938731  0.78676909    -0.02400
C898        C  0.18307391  0.67190778  0.81429054    -0.00700
C899        C  0.20030657  0.70109646  0.79807957    -0.04300
C900        C  0.19461976  0.70717098  0.75435127     0.02700
C901        C  0.13662802  0.63121621  0.71261050     0.09600
C902        C  0.14322996  0.61996261  0.80400632     0.35500
C903        C  0.20873393  0.73704281  0.73774309     0.38900
C904        C  0.14418317  0.61190653  0.69255580    -0.04700
C905        C  0.12417601  0.58958669  0.66349649     0.02500
C906        C  0.09657140  0.58709286  0.65254533    -0.04300
C907        C  0.08975469  0.60745183  0.67227206    -0.00500
C908        C  0.10927847  0.62867547  0.70287366    -0.03100
C909        C  0.17310576  0.61568379  0.70100326     0.36200
C910        C  0.06311300  0.60757578  0.66058730     0.39800
C911        C  0.13278121  0.56985637  0.64446852     0.38900
C912        C  0.10151140  0.64843945  0.72419815     0.35900
C913        C  0.17010253  0.69051882  0.68117313     0.36600
C914        C  0.18723216  0.66436164  0.85882878     0.39800
N915        N  0.13983517  0.55422764  0.62942722    -0.38300
N916        N  0.19625116  0.61888819  0.70766640    -0.39800
N917        N  0.04226372  0.60813516  0.64999572    -0.37600
N918        N  0.09567694  0.66436596  0.74143933    -0.40000
N919        N  0.12822198  0.59651644  0.81768660    -0.39800
N920        N  0.19010948  0.65793382  0.89431909    -0.37400
N921        N  0.21990912  0.76081373  0.72434082    -0.38400
N922        N  0.16664547  0.69545024  0.64504446    -0.40100
C923        C  0.33635909  0.80318633  0.38058257    -0.05000
C924        C  0.34944502  0.83137864  0.36164803     0.09100
C925        C  0.33973727  0.83504735  0.31979972    -0.02400
C926        C  0.31612321  0.81094289  0.29793997    -0.00700
C927        C  0.30290520  0.78240354  0.31664715    -0.04300
C928        C  0.31377867  0.77867777  0.35775753     0.02700
C929        C  0.37314649  0.85752457  0.38588326     0.09600
C930        C  0.35403344  0.86386338  0.29932065     0.35500
C931        C  0.30266102  0.74959207  0.37614086     0.38900
C932        C  0.40242957  0.86306992  0.38711111    -0.04700
C933        C  0.42484749  0.88862983  0.40826899     0.02500
C934        C  0.41765861  0.90783636  0.42957332    -0.04300
C935        C  0.39043442  0.90534953  0.41972059    -0.00500
C936        C  0.36731005  0.87903209  0.40228375    -0.03100
C937        C  0.40934588  0.84263358  0.36635681     0.36200
C938        C  0.39072418  0.93190247  0.40829773     0.39800
C939        C  0.45554402  0.89786066  0.40152422     0.38900
C940        C  0.33790844  0.87492100  0.39932746     0.35900
C941        C  0.34583997  0.79947103  0.42403017     0.36300
C942        C  0.30498597  0.81610608  0.25691565     0.39800
N943        N  0.48008043  0.90604824  0.39409275    -0.38300
N944        N  0.41436711  0.82592007  0.34987294    -0.39800
N945        N  0.39139891  0.95251447  0.39403714    -0.37600
N946        N  0.31443225  0.87160741  0.39716356    -0.40000
N947        N  0.36543044  0.88687474  0.28316007    -0.39800
N948        N  0.29620067  0.82035282  0.22424188    -0.37400
N949        N  0.29396818  0.72640661  0.39079658    -0.38400
N950        N  0.35318871  0.79641657  0.45879141    -0.40100
C951        C  0.17017055  0.67313932  0.37843223    -0.05000
C952        C  0.16141592  0.64345153  0.37094120     0.09100
C953        C  0.17484636  0.63611000  0.33698566    -0.02400
C954        C  0.19793770  0.65844943  0.31203915    -0.00700
C955        C  0.20767650  0.68832408  0.32086190    -0.04300
C956        C  0.19336609  0.69552616  0.35379201     0.02700
C957        C  0.13961042  0.62029145  0.40125600     0.09600
C958        C  0.16491175  0.60553884  0.32777661     0.35500
C959        C  0.20203464  0.72593620  0.36184150     0.38900
C960        C  0.11002171  0.60172585  0.38799803    -0.04700
C961        C  0.08934007  0.58114883  0.41800392     0.02500
C962        C  0.09795789  0.57961375  0.46185934    -0.04300
C963        C  0.12781327  0.59790691  0.47459731    -0.00500
C964        C  0.14857406  0.61782708  0.44428065    -0.03100
C965        C  0.10086379  0.60416433  0.34363172     0.36200
C966        C  0.13717901  0.59757920  0.51959957     0.39800
C967        C  0.05955792  0.56098010  0.40300794     0.38900
C968        C  0.17922004  0.63636271  0.45761705     0.35900
C969        C  0.15507362  0.68054633  0.41149623     0.36600
C970        C  0.21238950  0.65061637  0.27847334     0.39800
N971        N  0.03609875  0.54485254  0.38975982    -0.38300
N972        N  0.09372617  0.60618649  0.30814160    -0.39800
N973        N  0.14536578  0.59809495  0.55532719    -0.37600
N974        N  0.20363787  0.65122102  0.46816567    -0.40000
N975        N  0.15674542  0.58116536  0.31987256    -0.39800
N976        N  0.22390607  0.64437385  0.25168162    -0.37400
N977        N  0.20897850  0.75018862  0.36832467    -0.38400
N978        N  0.14289587  0.68633633  0.43777932    -0.40100
C979        C  0.24990159  0.76257235  0.01593834    -0.05000
C980        C  0.25226145  0.73942655  0.03487228     0.09100
C981        C  0.25379943  0.71875049  0.00721376    -0.02400
C982        C  0.25330980  0.72140153  0.96085841    -0.00700
C983        C  0.24968967  0.74381356  0.94194836    -0.04300
C984        C  0.24781456  0.76429357  0.96961838     0.02700
C985        C  0.25259051  0.73654056  0.08406522     0.09600
C986        C  0.25572015  0.69465856  0.02657077     0.35500
C987        C  0.24248472  0.78638077  0.95068360     0.38900
C988        C  0.22628859  0.72623687  0.10822285    -0.04700
C989        C  0.22662436  0.72441575  0.15475568     0.02500
C990        C  0.25331501  0.73231394  0.17749214    -0.04300
C991        C  0.27938537  0.74140086  0.15283177    -0.00500
C992        C  0.27909802  0.74401421  0.10643457    -0.03100
C993        C  0.19883287  0.71765043  0.08500460     0.36200
C994        C  0.30641928  0.74719314  0.17487392     0.39800
C995        C  0.19956647  0.71533509  0.17893612     0.38900
C996        C  0.30618600  0.75468978  0.08161691     0.35900
C997        C  0.24982706  0.78470728  0.04422603     0.36600
C998        C  0.25751014  0.70164710  0.93261924     0.39800
N999        N  0.17791729  0.70800718  0.19808450    -0.38300
N1000       N  0.17699292  0.71085734  0.06639401    -0.39800
N1001       N  0.32792479  0.75167463  0.19245081    -0.37600
N1002       N  0.32777540  0.76317617  0.06178449    -0.40000
N1003       N  0.25723052  0.67547204  0.04218033    -0.39800
N1004       N  0.26114006  0.68606215  0.91010473    -0.37400
N1005       N  0.23769453  0.80378911  0.93612405    -0.38400
N1006       N  0.24993261  0.80241744  0.06686526    -0.40100
C1007       C  0.73245400  0.21191614  0.29535653     0.80600
N1008       N  0.75528489  0.23500918  0.31663320    -0.77700
C1009       C  0.77790819  0.25673323  0.29340237     0.83100
N1010       N  0.77717800  0.25521980  0.24852544    -0.77600
C1011       C  0.75437386  0.23249171  0.22679271     0.83200
N1012       N  0.73212461  0.21081564  0.25046533    -0.79300
C1013       C  0.72506923  0.22492424  0.82498839     0.80600
N1014       N  0.74850763  0.24707714  0.80397725    -0.77700
C1015       C  0.77152567  0.26883548  0.82660721     0.83100
N1016       N  0.77152410  0.26825790  0.87151595    -0.77600
C1017       C  0.74845005  0.24597292  0.89326412     0.83200
N1018       N  0.72532563  0.22442850  0.87000767    -0.79300
C1019       C  0.74960538  0.48844339  0.28708320     0.80600
N1020       N  0.74803875  0.48471364  0.24232009    -0.77700
C1021       C  0.72473369  0.48219915  0.21868718     0.83100
N1022       N  0.70278649  0.48361649  0.23991678    -0.77600
C1023       C  0.70409274  0.48744527  0.28441327     0.83200
N1024       N  0.72723255  0.48953646  0.30758529    -0.79300
C1025       C  0.74740682  0.47420109  0.81545052     0.80600
N1026       N  0.72514182  0.47511032  0.79367105    -0.77700
C1027       C  0.70187093  0.47325067  0.81633317     0.83100
N1028       N  0.70171840  0.47092378  0.86118240    -0.77600
C1029       C  0.72406972  0.47061353  0.88341366     0.83200
N1030       N  0.74677513  0.47197753  0.86020996    -0.79300
C1031       C  0.98894588  0.23538043  0.29084292     0.80600
N1032       N  0.98947574  0.23706203  0.24585928    -0.77700
C1033       C  0.98781363  0.21502572  0.22038797     0.83100
N1034       N  0.98601984  0.19114100  0.24043134    -0.77600
C1035       C  0.98529854  0.18891957  0.28520112     0.83200
N1036       N  0.98651898  0.21096789  0.30994100    -0.79300
C1037       C  0.97646606  0.22904821  0.81404789     0.80600
N1038       N  0.97737027  0.23118370  0.85896874    -0.77700
C1039       C  0.97994218  0.21143309  0.88459995     0.83100
N1040       N  0.98104408  0.18890901  0.86494631    -0.77600
C1041       C  0.98024207  0.18644673  0.82024953     0.83200
N1042       N  0.97829730  0.20670142  0.79501636    -0.79300
O1043       O  0.92210561  0.00451359  0.50777026    -0.87800
C1044       C  0.57526499  0.06392350  0.62039654     1.12300
O1045       O  0.95694759  0.47793590  0.55154650    -1.35600
O1046       O  0.55447666  0.06393403  0.50392782    -0.89200
O1047       O  0.89768210  0.45600081  0.50025967    -0.89900
O1048       O  0.96108416  0.45015690  0.45760130    -0.78700
O1049       O  0.98886089  0.03564420  0.51298753    -1.00800
C1050       C  0.54405840  0.47863011  0.48044381     1.22300
O1051       O  0.98626361  0.44614192  0.55416735    -1.35700
Mn1052     Mn  0.98523137  0.47619197  0.60217972     1.82100
O1053       O  0.52197766  0.47942824  0.46649935    -0.77800
O1054       O  0.58046380  0.04148743  0.51505728    -0.87200
C1055       C  0.53604763  0.47401861  0.64364792     1.13400
C1056       C  0.57597795  0.06013756  0.49519598     1.08100
O1057       O  0.95212276  0.44504287  0.64269946    -0.78700
O1058       O  0.51866836  0.00738132  0.55786724    -1.32400
O1059       O  0.92690465  0.41869596  0.58849223    -0.97900
C1060       C  0.98745805  0.39066163  0.49156842     1.06900
Mn1061     Mn  0.55984052  0.00861727  0.56332340     1.48600
O1062       O  0.96284905  0.38923152  0.49831107    -0.87100
Mn1063     Mn  0.91447424  0.43930219  0.54760607     1.49600
O1064       O  0.92371118  0.00214946  0.60446188    -0.91000
C1065       C  0.98937209  0.03182622  0.47335920     1.20000
C1066       C  0.90212336  0.47730539  0.61561131     1.12100
Mn1067     Mn  0.98948988  0.47854766  0.50694609     1.81000
O1068       O  0.54284652  0.47462116  0.60465378    -0.96200
Mn1069     Mn  0.95578339  0.01752239  0.55467017     1.49300
C1070       C  0.90101582  0.48102728  0.49139729     1.08600
Mn1071     Mn  0.52456464  0.44227301  0.56003858     1.49900
C1072       C  0.98013918  0.38554171  0.61198431     1.11500
O1073       O  0.92944788  0.42171675  0.50438606    -1.02000
O1074       O  0.57701349  0.04115535  0.61276012    -0.91600
C1075       C  0.93659470  0.42794708  0.46554274     1.22800
O1076       O  0.54603474  0.47637907  0.52043782    -1.02400
O1077       O  0.55621986  0.06813074  0.60116851    -0.89800
O1078       O  0.50572065  0.40796250  0.60622939    -0.89400
O1079       O  0.89650107  0.45311328  0.59789794    -0.89400
Mn1080     Mn  0.52248285  0.04918655  0.55408792     1.47900
O1081       O  0.51287839  0.47434924  0.65167446    -0.77900
C1082       C  0.92979171  0.42224236  0.62858245     1.15900
O1083       O  0.99129783  0.01007967  0.46162526    -0.76600
O1084       O  0.98477199  0.00648895  0.64726914    -0.76200
Mn1085     Mn  0.94612615  0.40514468  0.54673158     1.51100
O1086       O  0.51126763  0.40985340  0.51045875    -0.88600
O1087       O  0.98931594  0.03538606  0.59580768    -0.96100
O1088       O  0.95722106  0.38315864  0.59362292    -0.91100
C1089       C  0.98726506  0.03039713  0.63538045     1.13700
C1090       C  0.99265534  0.07389207  0.74035455    -0.05000
C1091       C  0.98302817  0.09273764  0.72444135     0.09100
C1092       C  0.97237012  0.08941795  0.68077408    -0.02400
C1093       C  0.97381901  0.06934293  0.65174928    -0.00700
C1094       C  0.98425576  0.05066364  0.66702411    -0.04300
C1095       C  0.99228304  0.05225147  0.71232749     0.02700
C1096       C  0.98423616  0.11653626  0.75298252     0.09600
C1097       C  0.95988058  0.10693292  0.66567206     0.35500
C1098       C  0.50034552  0.03189423  0.73051303     0.38900
C1099       C  0.50551279  0.14623002  0.74457409    -0.04700
C1100       C  0.50486715  0.16891988  0.76801225     0.02500
C1101       C  0.98232855  0.16226892  0.79891040    -0.04300
C1102       C  0.96149680  0.13257761  0.80831631    -0.00500
C1103       C  0.96252721  0.10977504  0.78551398    -0.03100
C1104       C  0.52740700  0.15377872  0.71035681     0.36200
C1105       C  0.93820395  0.12546200  0.83999604     0.39800
C1106       C  0.52784626  0.19921020  0.76088311     0.38900
C1107       C  0.94050789  0.07936040  0.79411335     0.35900
C1108       C  0.00344448  0.07715104  0.78546579     0.36600
C1109       C  0.96474001  0.06867875  0.60607549     0.39800
N1110       N  0.54630208  0.22332172  0.75542432    -0.38300
N1111       N  0.54486217  0.16075026  0.68276618    -0.39800
N1112       N  0.91958971  0.11978082  0.86523867    -0.37600
N1113       N  0.92303176  0.05506887  0.80093920    -0.40000
N1114       N  0.94981367  0.12081566  0.65386167    -0.39800
N1115       N  0.95764930  0.06872964  0.56975989    -0.37400
N1116       N  0.50612013  0.01527359  0.74551023    -0.38400
N1117       N  0.51210311  0.07976639  0.82143957    -0.40100
C1118       C  0.95813805  0.26412830  0.71678144    -0.05000
C1119       C  0.97123650  0.29358874  0.73078614     0.09100
C1120       C  0.98441775  0.30161208  0.77304002    -0.02400
C1121       C  0.98642895  0.28085486  0.80004346    -0.00700
C1122       C  0.97389522  0.25117535  0.78586514    -0.04300
C1123       C  0.95901165  0.24293404  0.74427561     0.02700
C1124       C  0.97300153  0.31664415  0.69977801     0.09600
C1125       C  0.49599996  0.33148242  0.78864112     0.35500
C1126       C  0.94397778  0.21256716  0.72954781     0.38900
C1127       C  0.94829799  0.31976019  0.69219766    -0.04700
C1128       C  0.94995150  0.34091764  0.66186601     0.02500
C1129       C  0.97705053  0.36067972  0.64069962    -0.04300
C1130       C  0.50142681  0.35637592  0.64719734    -0.00500
C1131       C  0.49939423  0.33474177  0.67677960    -0.03100
C1132       C  0.92118369  0.30128025  0.71614239     0.36200
C1133       C  0.52834432  0.37302862  0.62192952     0.39800
C1134       C  0.92319890  0.34102282  0.65110062     0.38900
C1135       C  0.52457415  0.33091163  0.68355109     0.35900
C1136       C  0.94390344  0.25570663  0.67368311     0.36600
C1137       C  0.50271965  0.29079674  0.84140900     0.39800
N1138       N  0.90173418  0.34052027  0.64094893    -0.38300
N1139       N  0.89966757  0.28660238  0.73548021    -0.39800
N1140       N  0.54977349  0.38612524  0.60165917    -0.37600
N1141       N  0.54462000  0.32783909  0.68918887    -0.40000
N1142       N  0.50496652  0.35524618  0.80108862    -0.39800
N1143       N  0.51580441  0.29887734  0.87433866    -0.37400
N1144       N  0.93198908  0.18840572  0.71759346    -0.38400
N1145       N  0.93247547  0.24904535  0.63935368    -0.40100
C1146       C  0.49940733  0.10330231  0.42405559    -0.05000
C1147       C  0.98279828  0.09327856  0.38458020     0.09100
C1148       C  0.97026308  0.06347925  0.37235389    -0.02400
C1149       C  0.97405825  0.04381431  0.39969924    -0.00700
C1150       C  0.98888275  0.05330574  0.44107374    -0.04300
C1151       C  0.50197747  0.08351821  0.45255986     0.02700
C1152       C  0.98024694  0.11487759  0.35511434     0.09600
C1153       C  0.95290330  0.05293691  0.33202305     0.35500
C1154       C  0.51862899  0.09483559  0.49341048     0.38900
C1155       C  0.49917014  0.12703856  0.31839974    -0.04700
C1156       C  0.50063989  0.15092822  0.29501702     0.02500
C1157       C  0.98244496  0.16232092  0.30727383    -0.04300
C1158       C  0.96206684  0.14877808  0.34207477    -0.00500
C1159       C  0.96143242  0.12568681  0.36645839    -0.03100
C1160       C  0.51798496  0.11560061  0.30575512     0.36200
C1161       C  0.94135261  0.15836478  0.35263375     0.39800
C1162       C  0.52219057  0.16481251  0.26010271     0.38900
C1163       C  0.94194996  0.11399830  0.40414949     0.35900
C1164       C  0.51416368  0.13432618  0.43514516     0.36600
C1165       C  0.96268304  0.01386424  0.38495189     0.39800
N1166       N  0.53950476  0.17596485  0.23241495    -0.38300
N1167       N  0.53278353  0.10623785  0.29562053    -0.39800
N1168       N  0.92480983  0.16597660  0.36091273    -0.37600
N1169       N  0.92611896  0.10579570  0.43404479    -0.40000
N1170       N  0.93890580  0.04445847  0.29995268    -0.39800
N1171       N  0.95433767  0.49018166  0.37265677    -0.37400
N1172       N  0.53191310  0.10431449  0.52589644    -0.38400
N1173       N  0.52597223  0.15909804  0.44363799    -0.40100
C1174       C  0.99850277  0.28382959  0.39189294    -0.05000
C1175       C  0.98856237  0.30219232  0.37524401     0.09100
C1176       C  0.98065385  0.30024446  0.33026078    -0.02400
C1177       C  0.98068242  0.27868098  0.30258048    -0.00700
C1178       C  0.99004157  0.25946648  0.31923684    -0.04300
C1179       C  0.00009810  0.26324165  0.36398814     0.02700
C1180       C  0.98811974  0.32485661  0.40468198     0.09600
C1181       C  0.97339534  0.32122237  0.31209258     0.35500
C1182       C  0.01360721  0.24721357  0.38139167     0.38900
C1183       C  0.51425342  0.35177724  0.41224229    -0.04700
C1184       C  0.51435439  0.37314849  0.44047446     0.02500
C1185       C  0.98796356  0.36799161  0.46148342    -0.04300
C1186       C  0.96200445  0.33997170  0.45525238    -0.00500
C1187       C  0.96208521  0.31888680  0.42652680    -0.03100
C1188       C  0.54136057  0.35696796  0.39162127     0.36200
C1189       C  0.93561919  0.33155872  0.48086422     0.39800
C1190       C  0.54222648  0.39973410  0.44870076     0.38900
C1191       C  0.93548358  0.29052737  0.42036679     0.35900
C1192       C  0.00775106  0.28665702  0.43787833     0.36600
C1193       C  0.97075019  0.27659486  0.25712123     0.39800
N1194       N  0.56504187  0.42028615  0.45540941    -0.38300
N1195       N  0.56278933  0.36056289  0.37526286    -0.39800
N1196       N  0.91477588  0.32479927  0.50180853    -0.37600
N1197       N  0.91425303  0.26792651  0.41550241    -0.40000
N1198       N  0.96809898  0.33822853  0.29728704    -0.39800
N1199       N  0.96291915  0.27524177  0.22087744    -0.37400
N1200       N  0.02457917  0.23464918  0.39541099    -0.38400
N1201       N  0.01518171  0.28902796  0.47450371    -0.40100
C1202       C  0.00463065  0.21231208  0.00393464    -0.05000
C1203       C  0.98502772  0.21803340  0.02747299     0.09100
C1204       C  0.96464042  0.22295664  0.00420741    -0.02400
C1205       C  0.96337891  0.22154434  0.95752538    -0.00700
C1206       C  0.98229444  0.21472792  0.93373810    -0.04300
C1207       C  0.00334557  0.21067314  0.95731449     0.02700
C1208       C  0.98515709  0.21773519  0.07700880     0.09600
C1209       C  0.94458496  0.22896493  0.02855006     0.35500
C1210       C  0.02436716  0.20563328  0.93376587     0.38900
C1211       C  0.50366738  0.24356593  0.10110767    -0.04700
C1212       C  0.50440275  0.24295473  0.14785244     0.02500
C1213       C  0.98659532  0.21629130  0.17094018    -0.04300
C1214       C  0.96738706  0.19059610  0.14632725    -0.00500
C1215       C  0.96690953  0.19135726  0.09968478    -0.03100
C1216       C  0.52214553  0.27073833  0.07752713     0.36200
C1217       C  0.94711717  0.16344639  0.16869869     0.39800
C1218       C  0.52402545  0.26978930  0.17174860     0.38900
C1219       C  0.94754528  0.16489548  0.07474691     0.35900
C1220       C  0.02606050  0.20793729  0.02792860     0.36600
C1221       C  0.94196163  0.22630799  0.93429701     0.39800
N1222       N  0.53957249  0.29132039  0.19062149    -0.38300
N1223       N  0.53684762  0.29235385  0.05854642    -0.39800
N1224       N  0.93090547  0.14177499  0.18646257    -0.37600
N1225       N  0.93213412  0.14384427  0.05476346    -0.40000
N1226       N  0.92855359  0.23368629  0.04803963    -0.39800
N1227       N  0.92501021  0.23029792  0.91575440    -0.37400
N1228       N  0.04113725  0.20160608  0.91503052    -0.38400
N1229       N  0.04315624  0.20450255  0.04713929    -0.40100
C1230       C  0.82013576  0.00264415  0.75440783    -0.05000
C1231       C  0.81894630  0.47615898  0.74294247     0.09100
C1232       C  0.79488883  0.44916098  0.75711753    -0.02400
C1233       C  0.77156604  0.44858020  0.78096942    -0.00700
C1234       C  0.77210862  0.47497987  0.79067738    -0.04300
C1235       C  0.79667973  0.00204878  0.77792819     0.02700
C1236       C  0.84084747  0.47649367  0.71097160     0.09600
C1237       C  0.79388833  0.42195598  0.74620682     0.35500
C1238       C  0.79765412  0.02925855  0.78863570     0.38900
C1239       C  0.86568283  0.47514316  0.72565505    -0.04700
C1240       C  0.88576843  0.47516089  0.69459890     0.02500
C1241       C  0.88121196  0.47680878  0.64884837    -0.04300
C1242       C  0.85665415  0.47868408  0.63439957    -0.00500
C1243       C  0.83640036  0.47815248  0.66524088    -0.03100
C1244       C  0.87064103  0.97400014  0.77263422     0.36200
C1245       C  0.85242306  0.48185091  0.58772851     0.39800
C1246       C  0.91123477  0.97379604  0.70964820     0.38900
C1247       C  0.81076861  0.47924134  0.64993957     0.35900
C1248       C  0.84541917  0.03046360  0.74142882     0.36600
C1249       C  0.74659334  0.42074340  0.79460573     0.39800
N1250       N  0.93158147  0.97277306  0.72181256    -0.38300
N1251       N  0.87465841  0.97313340  0.81015072    -0.39800
N1252       N  0.84871717  0.48473005  0.55075624    -0.37600
N1253       N  0.79026929  0.48005722  0.63793801    -0.40000
N1254       N  0.79319567  0.40029431  0.73751566    -0.39800
N1255       N  0.72661013  0.39855797  0.80545878    -0.37400
N1256       N  0.79838806  0.05096841  0.79710644    -0.38400
N1257       N  0.86570345  0.05259769  0.73113456    -0.40100
C1258       C  0.60305569  0.99991856  0.71805030    -0.05000
C1259       C  0.60229529  0.47321627  0.72633968     0.09100
C1260       C  0.57578649  0.44658708  0.71760791    -0.02400
C1261       C  0.55202985  0.44690484  0.69593496    -0.00700
C1262       C  0.55541771  0.47344985  0.67991201    -0.04300
C1263       C  0.57871613  0.99965943  0.69757441     0.02700
C1264       C  0.62778147  0.47311167  0.74925982     0.09600
C1265       C  0.57233568  0.41907655  0.73320177     0.35500
C1266       C  0.57338162  0.02330116  0.70684167     0.38900
C1267       C  0.63421019  0.48157455  0.79404834    -0.04700
C1268       C  0.65898301  0.48301578  0.81510099     0.02500
C1269       C  0.67658415  0.47362324  0.79269133    -0.04300
C1270       C  0.66910007  0.46390739  0.74802011    -0.00500
C1271       C  0.64541655  0.46443460  0.72632212    -0.03100
C1272       C  0.61489390  0.98845844  0.81886013     0.36200
C1273       C  0.68484778  0.45227473  0.72421029     0.39800
C1274       C  0.66648257  0.99518759  0.85950808     0.38900
C1275       C  0.63902012  0.45589827  0.68012780     0.35900
C1276       C  0.62828329  0.02753955  0.73217197     0.36600
C1277       C  0.52259848  0.42236121  0.70186433     0.39800
N1278       N  0.67230830  0.00498173  0.89489370    -0.38300
N1279       N  0.59942119  0.99387784  0.83850673    -0.39800
N1280       N  0.69724549  0.44287495  0.70508768    -0.37600
N1281       N  0.63385697  0.44910302  0.64328538    -0.40000
N1282       N  0.56958994  0.39716149  0.74581458    -0.39800
N1283       N  0.49925407  0.40344097  0.71072634    -0.37400
N1284       N  0.56843809  0.04129537  0.71788071    -0.38400
N1285       N  0.64841882  0.04947733  0.74381096    -0.40100
C1286       C  0.80094312  0.49984918  0.38574579    -0.05000
C1287       C  0.81707714  0.48719476  0.37001770     0.09100
C1288       C  0.81341681  0.47745113  0.32588095    -0.02400
C1289       C  0.79275232  0.47923102  0.29781203    -0.00700
C1290       C  0.77475872  0.49019527  0.31418459    -0.04300
C1291       C  0.78035922  0.50186066  0.35809224     0.02700
C1292       C  0.83876974  0.48522234  0.40003260     0.09600
C1293       C  0.83111756  0.46556602  0.30943864     0.35500
C1294       C  0.76621714  0.51725949  0.37527157     0.38900
C1295       C  0.83040373  0.45929906  0.42385550    -0.04700
C1296       C  0.85011589  0.45807073  0.45453135     0.02500
C1297       C  0.87894435  0.48288140  0.46125704    -0.04300
C1298       C  0.88614614  0.50945800  0.43914803    -0.00500
C1299       C  0.86667653  0.51020540  0.40759839    -0.03100
C1300       C  0.80120234  0.43389403  0.41700484     0.36200
C1301       C  0.91246776  0.03671501  0.45098054     0.39800
C1302       C  0.83985598  0.43144790  0.48019865     0.38900
C1303       C  0.87514207  0.03686469  0.38288044     0.35900
C1304       C  0.80564997  0.51089458  0.43088642     0.36600
C1305       C  0.79104438  0.47026682  0.25203142     0.39800
N1306       N  0.83137448  0.41014788  0.50059155    -0.38300
N1307       N  0.77792433  0.41365332  0.41145805    -0.39800
N1308       N  0.93304999  0.05827406  0.46252445    -0.37600
N1309       N  0.88156068  0.05785882  0.36270429    -0.40000
N1310       N  0.84524595  0.45607470  0.29647586    -0.39800
N1311       N  0.79055394  0.46353759  0.21545000    -0.37400
N1312       N  0.75542582  0.52971870  0.39007926    -0.38400
N1313       N  0.80950614  0.51973310  0.46680813    -0.40100
C1314       C  0.62969253  0.46423525  0.33586726    -0.05000
C1315       C  0.63642622  0.48930826  0.36141151     0.09100
C1316       C  0.66475806  0.51460805  0.35857938    -0.02400
C1317       C  0.68643215  0.51450076  0.33142368    -0.00700
C1318       C  0.68023212  0.48879333  0.30814384    -0.04300
C1319       C  0.65159529  0.46389111  0.30960751     0.02700
C1320       C  0.61376154  0.48870153  0.39198101     0.09600
C1321       C  0.67166516  0.04063214  0.38407898     0.35500
C1322       C  0.64487446  0.43759802  0.28507380     0.38900
C1323       C  0.61704345  0.48759673  0.43812457    -0.04700
C1324       C  0.59518190  0.48576968  0.46702028     0.02500
C1325       C  0.56844328  0.48278083  0.44986707    -0.04300
C1326       C  0.56562847  0.48430792  0.40312664    -0.00500
C1327       C  0.58857922  0.48819092  0.37478557    -0.03100
C1328       C  0.64271645  0.48752640  0.45591807     0.36200
C1329       C  0.53912554  0.48145083  0.38322211     0.39800
C1330       C  0.60058770  0.48646475  0.51435704     0.38900
C1331       C  0.58627344  0.49153857  0.32747547     0.35900
C1332       C  0.60018230  0.43874951  0.33676313     0.36600
C1333       C  0.71480409  0.04116946  0.32625023     0.39800
N1334       N  0.60513395  0.48710148  0.55197757    -0.38300
N1335       N  0.66317424  0.48747139  0.47010638    -0.39800
N1336       N  0.51803085  0.47908489  0.36698418    -0.37600
N1337       N  0.58449288  0.49419688  0.28977593    -0.40000
N1338       N  0.67711122  0.06119007  0.40485395    -0.39800
N1339       N  0.73730986  0.06256019  0.32184051    -0.37400
N1340       N  0.63952937  0.41664433  0.26547456    -0.38400
N1341       N  0.57638745  0.41879733  0.33696158    -0.40100
C1342       C  0.72191539  0.49713290  0.09599638    -0.05000
C1343       C  0.72337053  0.47368529  0.07631783     0.09100
C1344       C  0.72451795  0.45254481  0.10347807    -0.02400
C1345       C  0.72442751  0.45496949  0.15004604    -0.00700
C1346       C  0.72364224  0.47882172  0.16974387    -0.04300
C1347       C  0.72190987  0.49962930  0.14247453     0.02700
C1348       C  0.72391102  0.47156561  0.02685270     0.09600
C1349       C  0.72608526  0.42845968  0.08340760     0.35500
C1350       C  0.72070642  0.02402497  0.16218716     0.38900
C1351       C  0.75003456  0.49015495  0.00349943    -0.04700
C1352       C  0.75019779  0.48969406  0.95679041     0.02500
C1353       C  0.72424731  0.47017260  0.93285959    -0.04300
C1354       C  0.69820118  0.45114895  0.95651395    -0.00500
C1355       C  0.69802843  0.45204249  0.00324100    -0.03100
C1356       C  0.77664468  0.51031246  0.02774008     0.36200
C1357       C  0.67156381  0.43030743  0.93296583     0.39800
C1358       C  0.77678509  0.51053496  0.93356790     0.38900
C1359       C  0.67099561  0.43330846  0.02715383     0.35900
C1360       C  0.72083507  0.01895655  0.06821690     0.36600
C1361       C  0.72390808  0.43225897  0.17762671     0.39800
N1362       N  0.79796995  0.52723095  0.91510194    -0.38300
N1363       N  0.79777986  0.52646158  0.04718754    -0.39800
N1364       N  0.65029994  0.91369223  0.91420220    -0.37600
N1365       N  0.64944754  0.41842529  0.04629709    -0.40000
N1366       N  0.72734669  0.40925610  0.06736058    -0.39800
N1367       N  0.72331060  0.41402410  0.19958514    -0.37400
N1368       N  0.71962146  0.04338708  0.17799932    -0.38400
N1369       N  0.72020102  0.03643837  0.04594139    -0.40100
C1370       C  0.89248276  0.37632959  0.73169519    -0.05000
C1371       C  0.86327986  0.35818674  0.71656208     0.09100
C1372       C  0.85539634  0.36189223  0.67347263    -0.02400
C1373       C  0.87697293  0.38240806  0.64454438    -0.00700
C1374       C  0.90659412  0.40082810  0.65942637    -0.04300
C1375       C  0.91382228  0.39813511  0.70391008     0.02700
C1376       C  0.84064331  0.33531131  0.74630613     0.09600
C1377       C  0.82486287  0.34455128  0.65897092     0.35500
C1378       C  0.94315243  0.41750410  0.72170204     0.38900
C1379       C  0.82909795  0.34365362  0.78179903    -0.04700
C1380       C  0.80726829  0.32209307  0.80934023     0.02500
C1381       C  0.79683208  0.29201259  0.80149690    -0.04300
C1382       C  0.80910947  0.28380904  0.76672520    -0.00500
C1383       C  0.83057037  0.30530706  0.73888777    -0.03100
C1384       C  0.83916160  0.37447815  0.78911497     0.36200
C1385       C  0.80001523  0.25314616  0.75988433     0.39800
C1386       C  0.79486063  0.33107188  0.84443445     0.38900
C1387       C  0.84157011  0.29620874  0.70193050     0.35900
C1388       C  0.90060819  0.37232737  0.77602338     0.36600
C1389       C  0.86827462  0.38387518  0.59937815     0.39800
N1390       N  0.78539057  0.33890869  0.87218574    -0.38300
N1391       N  0.84735968  0.39909551  0.79489021    -0.39800
N1392       N  0.79278828  0.22871798  0.75447203    -0.37600
N1393       N  0.84941242  0.28802110  0.67241795    -0.40000
N1394       N  0.80051117  0.33081355  0.64747968    -0.39800
N1395       N  0.86122481  0.38459206  0.56326541    -0.37400
N1396       N  0.96627121  0.43329679  0.73650912    -0.38400
N1397       N  0.90701002  0.36912460  0.81140515    -0.40100
C1398       C  0.67434789  0.18428729  0.72656375    -0.05000
C1399       C  0.65814203  0.15533692  0.74250249     0.09100
C1400       C  0.66177974  0.14938631  0.78677488    -0.02400
C1401       C  0.68307746  0.17190810  0.81429590    -0.00700
C1402       C  0.70030472  0.20109777  0.79808668    -0.04300
C1403       C  0.69461358  0.20717204  0.75436093     0.02700
C1404       C  0.63662719  0.13121509  0.71261931     0.09600
C1405       C  0.64324180  0.11995975  0.80400992     0.35500
C1406       C  0.70872316  0.23704411  0.73775497     0.38900
C1407       C  0.64418350  0.11190712  0.69256149    -0.04700
C1408       C  0.62417656  0.08958750  0.66350160     0.02500
C1409       C  0.59657136  0.08709265  0.65255204    -0.04300
C1410       C  0.58975357  0.10745009  0.67228130    -0.00500
C1411       C  0.60927667  0.12867289  0.70288457    -0.03100
C1412       C  0.67310701  0.11568600  0.70100593     0.36200
C1413       C  0.56311164  0.10757352  0.66059689     0.39800
C1414       C  0.63278254  0.06985841  0.64447134     0.38900
C1415       C  0.60150804  0.14843464  0.72421246     0.35900
C1416       C  0.67009140  0.19051956  0.68118623     0.36600
C1417       C  0.68724006  0.16436239  0.85883219     0.39800
N1418       N  0.63983696  0.05423047  0.62942838    -0.38300
N1419       N  0.69625316  0.11889159  0.70766662    -0.39800
N1420       N  0.54226221  0.10813251  0.65000501    -0.37600
N1421       N  0.59567239  0.16435956  0.74145634    -0.40000
N1422       N  0.62823998  0.09651195  0.81768873    -0.39800
N1423       N  0.69012062  0.15793491  0.89432098    -0.37400
N1424       N  0.71989481  0.26081530  0.72435425    -0.38400
N1425       N  0.66663002  0.19545119  0.64505978    -0.40100
C1426       C  0.83636139  0.30317866  0.38058275    -0.05000
C1427       C  0.84943960  0.33137278  0.36165555     0.09100
C1428       C  0.83972502  0.33504268  0.31981341    -0.02400
C1429       C  0.81611214  0.31093738  0.29795358    -0.00700
C1430       C  0.80290426  0.28239633  0.31665159    -0.04300
C1431       C  0.81378407  0.27866950  0.35775488     0.02700
C1432       C  0.87314030  0.35751893  0.38589161     0.09600
C1433       C  0.85401211  0.36386074  0.29934124     0.35500
C1434       C  0.80267580  0.24958249  0.37612740     0.38900
C1435       C  0.90242451  0.36306722  0.38711538    -0.04700
C1436       C  0.92484177  0.38862749  0.40827350     0.02500
C1437       C  0.91765148  0.40783221  0.42958053    -0.04300
C1438       C  0.89042535  0.40534229  0.41973257    -0.00500
C1439       C  0.86730170  0.37902384  0.40229738    -0.03100
C1440       C  0.90934249  0.34263327  0.36635693     0.36200
C1441       C  0.89071158  0.43189356  0.40831066     0.39800
C1442       C  0.95553865  0.39785953  0.40152883     0.38900
C1443       C  0.83789865  0.37490965  0.39934682     0.35900
C1444       C  0.84584561  0.29946189  0.42402678     0.36300
C1445       C  0.80496412  0.31610089  0.25694045     0.39800
N1446       N  0.98007529  0.40604772  0.39409807    -0.38300
N1447       N  0.91436453  0.32592121  0.34987005    -0.39800
N1448       N  0.89138334  0.45250413  0.39405003    -0.37600
N1449       N  0.81442146  0.37159384  0.39718677    -0.40000
N1450       N  0.86540143  0.38687367  0.28318636    -0.39800
N1451       N  0.79616944  0.32034767  0.22427617    -0.37400
N1452       N  0.79399057  0.22639597  0.39077424    -0.38400
N1453       N  0.85319593  0.29640557  0.45878555    -0.40100
C1454       C  0.67017625  0.17313349  0.37843635    -0.05000
C1455       C  0.66141716  0.14344505  0.37094088     0.09100
C1456       C  0.67484354  0.13610197  0.33698110    -0.02400
C1457       C  0.69793557  0.15844055  0.31203447    -0.00700
C1458       C  0.70767878  0.18831572  0.32086151    -0.04300
C1459       C  0.69337207  0.19551931  0.35379576     0.02700
C1460       C  0.63961175  0.12028579  0.40125618     0.09600
C1461       C  0.66490448  0.10553016  0.32776878     0.35500
C1462       C  0.70204492  0.22593011  0.36184965     0.38900
C1463       C  0.61002194  0.10172344  0.38800123    -0.04700
C1464       C  0.58934019  0.08114855  0.41800900     0.02500
C1465       C  0.59795920  0.07961251  0.46186333    -0.04300
C1466       C  0.62781602  0.09790156  0.47459743    -0.00500
C1467       C  0.64857674  0.11781958  0.44427885    -0.03100
C1468       C  0.60086326  0.10416237  0.34363560     0.36200
C1469       C  0.63718407  0.09757169  0.51959742     0.39800
C1470       C  0.55955711  0.06098212  0.40301494     0.38900
C1471       C  0.67922417  0.13635096  0.45761102     0.35900
C1472       C  0.65508428  0.18054239  0.41150639     0.36600
C1473       C  0.71238362  0.15060598  0.27846463     0.39800
N1474       N  0.53609747  0.04485630  0.38976672    -0.38300
N1475       N  0.59372512  0.10618455  0.30814585    -0.39800
N1476       N  0.64537332  0.09808579  0.55532283    -0.37600
N1477       N  0.70364328  0.15120596  0.46815615    -0.40000
N1478       N  0.65673436  0.08115607  0.31986304    -0.39800
N1479       N  0.72389721  0.14436206  0.25166976    -0.37400
N1480       N  0.70899239  0.25018310  0.36833622    -0.38400
N1481       N  0.64291085  0.18633416  0.43779456    -0.40100
C1482       C  0.74990136  0.26257511  0.01594314    -0.05000
C1483       C  0.75226362  0.23943040  0.03487601     0.09100
C1484       C  0.75380390  0.21875600  0.00721647    -0.02400
C1485       C  0.75331333  0.22140723  0.96086137    -0.00700
C1486       C  0.74968999  0.24381755  0.94195261    -0.04300
C1487       C  0.74781346  0.26429641  0.96962344     0.02700
C1488       C  0.75259260  0.23654349  0.08406870     0.09600
C1489       C  0.75572838  0.19466581  0.02657214     0.35500
C1490       C  0.74248166  0.28638253  0.95068962     0.38900
C1491       C  0.72629106  0.22624141  0.10822687    -0.04700
C1492       C  0.72662654  0.22441774  0.15475931     0.02500
C1493       C  0.75331653  0.23231192  0.17749454    -0.04300
C1494       C  0.77938636  0.24139762  0.15283388    -0.00500
C1495       C  0.77909948  0.24401343  0.10643726    -0.03100
C1496       C  0.69883582  0.21765892  0.08500957     0.36200
C1497       C  0.80641925  0.24718589  0.17487534     0.39800
C1498       C  0.69956938  0.21533840  0.17894088     0.38900
C1499       C  0.80618711  0.25468710  0.08161946     0.35900
C1500       C  0.74982529  0.28470901  0.04423165     0.36600
C1501       C  0.75751616  0.20165482  0.93262111     0.39800
N1502       N  0.67792066  0.20801148  0.19809014    -0.38300
N1503       N  0.67699650  0.21086923  0.06639985    -0.39800
N1504       N  0.82792369  0.25166408  0.19245181    -0.37600
N1505       N  0.82777628  0.26317163  0.06178704    -0.40000
N1506       N  0.75724222  0.17548098  0.04218072    -0.39800
N1507       N  0.76114811  0.18607152  0.91010601    -0.37400
N1508       N  0.73769010  0.30379008  0.93613049    -0.38400
N1509       N  0.74992946  0.30241823  0.06687123    -0.40100
C1510       C  0.73245268  0.71192251  0.29535723     0.80600
N1511       N  0.75528384  0.73501593  0.31663314    -0.77700
C1512       C  0.77790849  0.75673844  0.29340176     0.83100
N1513       N  0.77717869  0.75522300  0.24852485    -0.77600
C1514       C  0.75437407  0.73249513  0.22679261     0.83200
N1515       N  0.73212399  0.71082046  0.25046606    -0.79300
C1516       C  0.72507004  0.72492309  0.82498489     0.80600
N1517       N  0.74850955  0.74707502  0.80397422    -0.77700
C1518       C  0.77152750  0.76883318  0.82660453     0.83100
N1519       N  0.77152493  0.76825626  0.87151334    -0.77600
C1520       C  0.74844994  0.74597197  0.89326131     0.83200
N1521       N  0.72532548  0.72442792  0.87000423    -0.79300
C1522       C  0.74961838  0.98846010  0.28707859     0.80600
N1523       N  0.74804937  0.98472815  0.24231599    -0.77700
C1524       C  0.72474405  0.98221406  0.21868418     0.83100
N1525       N  0.70279834  0.98363365  0.23991519    -0.77600
C1526       C  0.70410681  0.98746463  0.28441161     0.83200
N1527       N  0.72724700  0.98955521  0.30758160    -0.79300
C1528       C  0.74740620  0.97420064  0.81544506     0.80600
N1529       N  0.72513927  0.97510755  0.79366762    -0.77700
C1530       C  0.70186871  0.97324673  0.81633243     0.83100
N1531       N  0.70171791  0.97092059  0.86118180    -0.77600
C1532       C  0.72407120  0.97061255  0.88341064     0.83200
N1533       N  0.74677648  0.97197801  0.86020462    -0.79300
C1534       C  0.98894229  0.73537901  0.29084475     0.80600
N1535       N  0.98947030  0.73706074  0.24586121    -0.77700
C1536       C  0.98780926  0.71502561  0.22038818     0.83100
N1537       N  0.98601821  0.69114168  0.24042990    -0.77600
C1538       C  0.98529833  0.68891965  0.28519962     0.83200
N1539       N  0.98651788  0.71096706  0.30994106    -0.79300
C1540       C  0.97646643  0.72904853  0.81404909     0.80600
N1541       N  0.97736950  0.73118314  0.85896982    -0.77700
C1542       C  0.97994214  0.71143294  0.88460080     0.83100
N1543       N  0.98104579  0.68890974  0.86494720    -0.77600
C1544       C  0.98024448  0.68644804  0.82025023     0.83200
N1545       N  0.97829914  0.70670256  0.79501735    -0.79300
O1546       O  0.92210367  0.50451275  0.50776728    -0.87800
C1547       C  0.57526393  0.56392205  0.62039432     1.12300
O1548       O  0.95694960  0.97793631  0.55154668    -1.35600
O1549       O  0.55447544  0.56393283  0.50392605    -0.89200
O1550       O  0.89768769  0.95600264  0.50025014    -0.89900
O1551       O  0.96109064  0.95016051  0.45760004    -0.78700
O1552       O  0.98885956  0.53564368  0.51298200    -1.00800
C1553       C  0.54406373  0.97863368  0.48044612     1.22300
O1554       O  0.98626630  0.94614322  0.55416842    -1.35700
Mn1555     Mn  0.98523195  0.97619165  0.60218162     1.82100
O1556       O  0.52198398  0.97943315  0.46649976    -0.77800
O1557       O  0.58046221  0.54148572  0.51505314    -0.87200
C1558       C  0.53604690  0.97401824  0.64364971     1.13400
C1559       C  0.57597665  0.56013645  0.49519320     1.08100
O1560       O  0.95212183  0.94504156  0.64269725    -0.78700
O1561       O  0.51866663  0.50738001  0.55786599    -1.32400
O1562       O  0.92690481  0.91869539  0.58848819    -0.97900
C1563       C  0.98746276  0.89066461  0.49156890     1.06900
Mn1564     Mn  0.55983901  0.50861594  0.56332010     1.48600
O1565       O  0.96285395  0.88923491  0.49831044    -0.87100
Mn1566     Mn  0.91447648  0.93930249  0.54759963     1.49600
O1567       O  0.92371086  0.50215257  0.60445823    -0.91000
C1568       C  0.98937020  0.53182429  0.47335391     1.20000
C1569       C  0.90212168  0.97730147  0.61560763     1.12100
Mn1570     Mn  0.98949394  0.97855013  0.50694817     1.81000
O1571       O  0.54284713  0.97462174  0.60465598    -0.96200
Mn1572     Mn  0.95578235  0.51752278  0.55466602     1.49300
C1573       C  0.90102055  0.98102938  0.49139269     1.08600
Mn1574     Mn  0.52456638  0.94227409  0.56003903     1.49900
C1575       C  0.98013980  0.88554186  0.61198455     1.11500
O1576       O  0.92945280  0.92171882  0.50438168    -1.02000
O1577       O  0.57701322  0.54115448  0.61275635    -0.91600
C1578       C  0.93660112  0.92795012  0.46553900     1.22800
O1579       O  0.54603794  0.97638115  0.52044023    -1.02400
O1580       O  0.55621826  0.56812892  0.60116714    -0.89800
O1581       O  0.50572005  0.90796245  0.60622854    -0.89400
O1582       O  0.89649929  0.95311107  0.59788816    -0.89400
Mn1583     Mn  0.52248134  0.54918533  0.55408609     1.47900
O1584       O  0.51287668  0.97434745  0.65167443    -0.77900
C1585       C  0.92979105  0.92224144  0.62857868     1.15900
O1586       O  0.99129375  0.51007624  0.46162166    -0.76600
O1587       O  0.98477257  0.50649037  0.64726562    -0.76200
Mn1588     Mn  0.94612906  0.90514611  0.54672927     1.51100
O1589       O  0.51127137  0.90985498  0.51045783    -0.88600
O1590       O  0.98931509  0.53538644  0.59580301    -0.96100
O1591       O  0.95722227  0.88315919  0.59362159    -0.91100
C1592       C  0.98726445  0.53039791  0.63537600     1.13700
C1593       C  0.99265175  0.57389151  0.74035026    -0.05000
C1594       C  0.98302557  0.59273771  0.72443627     0.09100
C1595       C  0.97236860  0.58941852  0.68076836    -0.02400
C1596       C  0.97381749  0.56934326  0.65174394    -0.00700
C1597       C  0.98425417  0.55066401  0.66701938    -0.04300
C1598       C  0.99227994  0.55225112  0.71232334     0.02700
C1599       C  0.98423396  0.61653659  0.75297751     0.09600
C1600       C  0.95988027  0.60693431  0.66566503     0.35500
C1601       C  0.50033751  0.53189111  0.73051426     0.38900
C1602       C  0.50551085  0.64623040  0.74457039    -0.04700
C1603       C  0.50486701  0.66892078  0.76801012     0.02500
C1604       C  0.98232994  0.66226979  0.79891012    -0.04300
C1605       C  0.96149702  0.63257855  0.80831463    -0.00500
C1606       C  0.96252605  0.60977571  0.78551062    -0.03100
C1607       C  0.52740425  0.65377827  0.71035215     0.36200
C1608       C  0.93820443  0.62546330  0.83999463     0.39800
C1609       C  0.52784761  0.69921063  0.76088237     0.38900
C1610       C  0.94050690  0.57936116  0.79411104     0.35900
C1611       C  0.00343935  0.57714960  0.78546225     0.36600
C1612       C  0.96473777  0.56867812  0.60607034     0.39800
N1613       N  0.54630483  0.72332176  0.75542493    -0.38300
N1614       N  0.54485869  0.66074878  0.68276053    -0.39800
N1615       N  0.91959026  0.61978231  0.86523733    -0.37600
N1616       N  0.92303122  0.55506965  0.80093809    -0.40000
N1617       N  0.94981444  0.62081768  0.65385314    -0.39800
N1618       N  0.95764601  0.56872785  0.56975490    -0.37400
N1619       N  0.50610997  0.51526925  0.74551301    -0.38400
N1620       N  0.51209554  0.57976420  0.82143943    -0.40100
C1621       C  0.95813862  0.76412776  0.71678098    -0.05000
C1622       C  0.97123397  0.79358766  0.73078728     0.09100
C1623       C  0.98441198  0.80161049  0.77304322    -0.02400
C1624       C  0.98642356  0.78085374  0.80004742    -0.00700
C1625       C  0.97389409  0.75117505  0.78586665    -0.04300
C1626       C  0.95901300  0.74293398  0.74427529     0.02700
C1627       C  0.97299956  0.81664315  0.69977861     0.09600
C1628       C  0.49598647  0.83147983  0.78864547     0.35500
C1629       C  0.94398198  0.71256744  0.72954561     0.38900
C1630       C  0.94829542  0.81975744  0.69219326    -0.04700
C1631       C  0.94994994  0.84091556  0.66186187     0.02500
C1632       C  0.97705021  0.86067931  0.64069972    -0.04300
C1633       C  0.50142417  0.85637598  0.64720025    -0.00500
C1634       C  0.49939032  0.83474171  0.67678356    -0.03100
C1635       C  0.92117928  0.80127471  0.71613224     0.36200
C1636       C  0.52834281  0.87302876  0.62193520     0.39800
C1637       C  0.92319736  0.84101974  0.65109233     0.38900
C1638       C  0.52457057  0.83091281  0.68356032     0.35900
C1639       C  0.94390644  0.75570625  0.67368112     0.36600
C1640       C  0.50270857  0.79079617  0.84141472     0.39800
N1641       N  0.90173279  0.84051666  0.64093746    -0.38300
N1642       N  0.89966173  0.78659435  0.73546536    -0.39800
N1643       N  0.54977294  0.88612535  0.60166671    -0.37600
N1644       N  0.54461667  0.82784123  0.68920250    -0.40000
N1645       N  0.50494947  0.85524272  0.80109403    -0.39800
N1646       N  0.51579070  0.79887714  0.87434666    -0.37400
N1647       N  0.93199562  0.68840642  0.71759011    -0.38400
N1648       N  0.93248019  0.74904491  0.63935035    -0.40100
C1649       C  0.49941059  0.60329844  0.42404153    -0.05000
C1650       C  0.98279960  0.59327586  0.38456894     0.09100
C1651       C  0.97026030  0.56347531  0.37234708    -0.02400
C1652       C  0.97405520  0.54381063  0.39969362    -0.00700
C1653       C  0.98888236  0.55330343  0.44106603    -0.04300
C1654       C  0.50197944  0.58351514  0.45254935     0.02700
C1655       C  0.98024665  0.61487435  0.35510394     0.09600
C1656       C  0.95289490  0.55293112  0.33202163     0.35500
C1657       C  0.51863174  0.59483415  0.49339891     0.38900
C1658       C  0.49916599  0.62703154  0.31838757    -0.04700
C1659       C  0.50063609  0.65092251  0.29500805     0.02500
C1660       C  0.98244545  0.66232052  0.30727014    -0.04300
C1661       C  0.96206812  0.64877694  0.34207193    -0.00500
C1662       C  0.96143287  0.62568379  0.36645138    -0.03100
C1663       C  0.51797824  0.61559174  0.30573737     0.36200
C1664       C  0.94135581  0.65836499  0.35263649     0.39800
C1665       C  0.52218492  0.66480629  0.26009115     0.38900
C1666       C  0.94194951  0.61399297  0.40414119     0.35900
C1667       C  0.51417146  0.63432360  0.43512438     0.36600
C1668       C  0.96267430  0.51385847  0.38495173     0.39800
N1669       N  0.53949750  0.67595806  0.23240134    -0.38300
N1670       N  0.53277472  0.60622747  0.29559803    -0.39800
N1671       N  0.92481463  0.66597811  0.36092042    -0.37600
N1672       N  0.92611735  0.60578867  0.43403503    -0.40000
N1673       N  0.93889228  0.54445084  0.29995612    -0.39800
N1674       N  0.95435162  0.99018937  0.37265196    -0.37400
N1675       N  0.53191624  0.60431452  0.52588421    -0.38400
N1676       N  0.52598372  0.65909640  0.44361149    -0.40100
C1677       C  0.99849748  0.78382663  0.39189708    -0.05000
C1678       C  0.98856131  0.80219233  0.37524659     0.09100
C1679       C  0.98065610  0.80024700  0.33026238    -0.02400
C1680       C  0.98068330  0.77868281  0.30258221    -0.00700
C1681       C  0.99003787  0.75946481  0.31923989    -0.04300
C1682       C  0.00009111  0.76323740  0.36399303     0.02700
C1683       C  0.98812016  0.82485749  0.40468388     0.09600
C1684       C  0.97340271  0.82122850  0.31209352     0.35500
C1685       C  0.01359516  0.74720538  0.38139971     0.38900
C1686       C  0.51425403  0.85177659  0.41224050    -0.04700
C1687       C  0.51435565  0.87314969  0.44046917     0.02500
C1688       C  0.98796691  0.86799410  0.46148412    -0.04300
C1689       C  0.96200790  0.83997349  0.45525828    -0.00500
C1690       C  0.96208671  0.81888830  0.42653140    -0.03100
C1691       C  0.54135995  0.85696726  0.39161530     0.36200
C1692       C  0.93562423  0.83156062  0.48087461     0.39800
C1693       C  0.54222638  0.89973931  0.44868237     0.38900
C1694       C  0.93548352  0.79053050  0.42036929     0.35900
C1695       C  0.00774418  0.78665303  0.43788328     0.36600
C1696       C  0.97075470  0.77660020  0.25712149     0.39800
N1697       N  0.56504118  0.92029502  0.45537839    -0.38300
N1698       N  0.56278773  0.86056223  0.37525326    -0.39800
N1699       N  0.91478198  0.82480103  0.50182155    -0.37600
N1700       N  0.91425117  0.76793139  0.41550188    -0.40000
N1701       N  0.96811052  0.83823775  0.29728858    -0.39800
N1702       N  0.96292654  0.77525030  0.22087678    -0.37400
N1703       N  0.02456305  0.73463782  0.39542183    -0.38400
N1704       N  0.01517371  0.78902326  0.47450902    -0.40100
C1705       C  0.00463102  0.71231991  0.00393729    -0.05000
C1706       C  0.98502272  0.71803479  0.02747331     0.09100
C1707       C  0.96463061  0.72294976  0.00420551    -0.02400
C1708       C  0.96337029  0.72153629  0.95752363    -0.00700
C1709       C  0.98229183  0.71472695  0.93373881    -0.04300
C1710       C  0.00334684  0.71067941  0.95731720     0.02700
C1711       C  0.98515057  0.71773661  0.07700903     0.09600
C1712       C  0.94456879  0.72895022  0.02854575     0.35500
C1713       C  0.02437271  0.70564505  0.93377058     0.38900
C1714       C  0.50365197  0.74356546  0.10110882    -0.04700
C1715       C  0.50438827  0.74295389  0.14785356     0.02500
C1716       C  0.98658945  0.71629188  0.17094038    -0.04300
C1717       C  0.96738611  0.69059513  0.14632650    -0.00500
C1718       C  0.96690837  0.69135691  0.09968414    -0.03100
C1719       C  0.52212256  0.77074016  0.07752901     0.36200
C1720       C  0.94712132  0.66344299  0.16869654     0.39800
C1721       C  0.52400510  0.76979038  0.17174969     0.38900
C1722       C  0.94754887  0.66489387  0.07474529     0.35900
C1723       C  0.02606526  0.70795312  0.02793365     0.36600
C1724       C  0.94194774  0.72629073  0.93429257     0.39800
N1725       N  0.53954738  0.79132322  0.19062247    -0.38300
N1726       N  0.53681835  0.79235762  0.05854898    -0.39800
N1727       N  0.93091355  0.64176945  0.18645920    -0.37600
N1728       N  0.93214138  0.64384191  0.05476098    -0.40000
N1729       N  0.92853230  0.73366521  0.04803331    -0.39800
N1730       N  0.92499200  0.73027304  0.91574764    -0.37400
N1731       N  0.04114626  0.70162215  0.91503693    -0.38400
N1732       N  0.04316444  0.70452475  0.04714651    -0.40100
C1733       C  0.82013987  0.50264596  0.75442371    -0.05000
C1734       C  0.81894545  0.97615706  0.74293793     0.09100
C1735       C  0.79489057  0.94915993  0.75712101    -0.02400
C1736       C  0.77156740  0.94857966  0.78097099    -0.00700
C1737       C  0.77210725  0.97497914  0.79066986    -0.04300
C1738       C  0.79668407  0.50205008  0.77794529     0.02700
C1739       C  0.84084557  0.97648945  0.71096739     0.09600
C1740       C  0.79389271  0.92195491  0.74621957     0.35500
C1741       C  0.79766177  0.52925994  0.78866421     0.38900
C1742       C  0.86568622  0.97514881  0.72565163    -0.04700
C1743       C  0.88577104  0.97516498  0.69459553     0.02500
C1744       C  0.88120855  0.97680178  0.64884414    -0.04300
C1745       C  0.85664331  0.97866348  0.63439404    -0.00500
C1746       C  0.83639105  0.97813453  0.66523569    -0.03100
C1747       C  0.87063167  0.47398337  0.77263699     0.36200
C1748       C  0.85240219  0.98181285  0.58772080     0.39800
C1749       C  0.91122909  0.47378630  0.70965133     0.38900
C1750       C  0.81075361  0.97921275  0.64993390     0.35900
C1751       C  0.84542682  0.53046612  0.74145593     0.36600
C1752       C  0.74659656  0.92074338  0.79461313     0.39800
N1753       N  0.93157403  0.47276033  0.72181601    -0.38300
N1754       N  0.87464409  0.47310781  0.81015328    -0.39800
N1755       N  0.84868702  0.98467714  0.55074658    -0.37600
N1756       N  0.79024991  0.98002047  0.63793210    -0.40000
N1757       N  0.79320202  0.90029331  0.73753546    -0.39800
N1758       N  0.72661457  0.89855821  0.80547025    -0.37400
N1759       N  0.79839831  0.55096985  0.79714437    -0.38400
N1760       N  0.86571379  0.55260074  0.73117095    -0.40100
C1761       C  0.60305559  0.49992109  0.71805099    -0.05000
C1762       C  0.60229118  0.97321256  0.72634705     0.09100
C1763       C  0.57577988  0.94658461  0.71762054    -0.02400
C1764       C  0.55202500  0.94690381  0.69594376    -0.00700
C1765       C  0.55541607  0.97344910  0.67991540    -0.04300
C1766       C  0.57871511  0.49966032  0.69757517     0.02700
C1767       C  0.62777699  0.97310647  0.74926637     0.09600
C1768       C  0.57232520  0.91907402  0.73322225     0.35500
C1769       C  0.57337761  0.52330013  0.70684207     0.38900
C1770       C  0.63421305  0.98157866  0.79405087    -0.04700
C1771       C  0.65898726  0.98302066  0.81509995     0.02500
C1772       C  0.67658083  0.97361807  0.79269330    -0.04300
C1773       C  0.66908852  0.96389142  0.74802819    -0.00500
C1774       C  0.64540532  0.96441977  0.72633123    -0.03100
C1775       C  0.61488446  0.48844528  0.81885807     0.36200
C1776       C  0.68482680  0.95224558  0.72422544     0.39800
C1777       C  0.66646794  0.49517079  0.85951674     0.38900
C1778       C  0.63900277  0.95587549  0.68014051     0.35900
C1779       C  0.62827954  0.52754214  0.73218138     0.36600
C1780       C  0.52259268  0.92236089  0.70186865     0.39800
N1781       N  0.67228480  0.50495516  0.89490885    -0.38300
N1782       N  0.59940650  0.49385748  0.83850453    -0.39800
N1783       N  0.69721665  0.94283480  0.70510901    -0.37600
N1784       N  0.63383472  0.94907430  0.64330081    -0.40000
N1785       N  0.56957641  0.89715904  0.74584128    -0.39800
N1786       N  0.49924730  0.90344066  0.71072639    -0.37400
N1787       N  0.56843108  0.54129267  0.71787947    -0.38400
N1788       N  0.64841202  0.54947989  0.74382740    -0.40100
C1789       C  0.80095060  0.99985125  0.38574347    -0.05000
C1790       C  0.81709138  0.98720679  0.37000531     0.09100
C1791       C  0.81343815  0.97747592  0.32586242    -0.02400
C1792       C  0.79277327  0.97925773  0.29779671    -0.00700
C1793       C  0.77477206  0.99021084  0.31417878    -0.04300
C1794       C  0.78036596  0.00186427  0.35809394     0.02700
C1795       C  0.83878307  0.98523123  0.40001795     0.09600
C1796       C  0.83114691  0.96560242  0.30941036     0.35500
C1797       C  0.76621562  0.01725151  0.37528747     0.38900
C1798       C  0.83041682  0.95930435  0.42383070    -0.04700
C1799       C  0.85012568  0.95807380  0.45451059     0.02500
C1800       C  0.87895184  0.98288556  0.46124874    -0.04300
C1801       C  0.88615379  0.00946521  0.43914888    -0.00500
C1802       C  0.86668688  0.01021538  0.40759686    -0.03100
C1803       C  0.80121802  0.93389816  0.41696657     0.36200
C1804       C  0.91246367  0.53670790  0.45096736     0.39800
C1805       C  0.83986400  0.93144784  0.48017051     0.38900
C1806       C  0.87513312  0.53685045  0.38286918     0.35900
C1807       C  0.80565152  0.01088514  0.43089048     0.36600
C1808       C  0.79107350  0.97030786  0.25200998     0.39800
N1809       N  0.83138086  0.91014553  0.50055835    -0.38300
N1810       N  0.77794201  0.91365669  0.41140880    -0.39800
N1811       N  0.93304898  0.55826718  0.46250235    -0.37600
N1812       N  0.88155388  0.55784143  0.36268330    -0.40000
N1813       N  0.84528191  0.95612053  0.29643989    -0.39800
N1814       N  0.79058911  0.96358996  0.21542377    -0.37400
N1815       N  0.75541728  0.02970093  0.39010689    -0.38400
N1816       N  0.80950321  0.01971471  0.46681724    -0.40100
C1817       C  0.62970728  0.96425049  0.33587289    -0.05000
C1818       C  0.63644049  0.98932158  0.36142191     0.09100
C1819       C  0.66477272  0.01462138  0.35859340    -0.02400
C1820       C  0.68644725  0.01451604  0.33143574    -0.00700
C1821       C  0.68024640  0.98881147  0.30814621    -0.04300
C1822       C  0.65160947  0.96390919  0.30960776     0.02700
C1823       C  0.61377409  0.98871313  0.39199034     0.09600
C1824       C  0.67165081  0.54062069  0.38406030     0.35500
C1825       C  0.64488811  0.93761844  0.28506700     0.38900
C1826       C  0.61705297  0.98760520  0.43813416    -0.04700
C1827       C  0.59518839  0.98577384  0.46702788     0.02500
C1828       C  0.56845081  0.98278634  0.44987204    -0.04300
C1829       C  0.56563902  0.98431641  0.40313157    -0.00500
C1830       C  0.58859180  0.98820184  0.37479285    -0.03100
C1831       C  0.64272563  0.98753518  0.45592996     0.36200
C1832       C  0.53913650  0.98145864  0.38322437     0.39800
C1833       C  0.60058889  0.98646062  0.51436517     0.38900
C1834       C  0.58628763  0.99155029  0.32748256     0.35900
C1835       C  0.60019809  0.93876309  0.33677029     0.36600
C1836       C  0.71478698  0.54115503  0.32622830     0.39800
N1837       N  0.60513057  0.98709008  0.55198631    -0.38300
N1838       N  0.66318307  0.98748049  0.47012038    -0.39800
N1839       N  0.51804206  0.97909198  0.36698437    -0.37600
N1840       N  0.58450812  0.99420875  0.28978285    -0.40000
N1841       N  0.67709715  0.56117977  0.40483215    -0.39800
N1842       N  0.73729085  0.56254661  0.32180931    -0.37400
N1843       N  0.63954264  0.91666666  0.26546195    -0.38400
N1844       N  0.57640433  0.91880919  0.33697073    -0.40100
C1845       C  0.72191821  0.99713404  0.09598846    -0.05000
C1846       C  0.72337879  0.97368790  0.07631530     0.09100
C1847       C  0.72453068  0.95255203  0.10348102    -0.02400
C1848       C  0.72444103  0.95498084  0.15004858    -0.00700
C1849       C  0.72364999  0.97883157  0.16974103    -0.04300
C1850       C  0.72191173  0.99963364  0.14246616     0.02700
C1851       C  0.72391921  0.97156490  0.02685016     0.09600
C1852       C  0.72610111  0.92846699  0.08341679     0.35500
C1853       C  0.72071119  0.52402261  0.16220200     0.38900
C1854       C  0.75003944  0.99016054  0.00349381    -0.04700
C1855       C  0.75020050  0.98969931  0.95678462     0.02500
C1856       C  0.72425116  0.97017212  0.93285648    -0.04300
C1857       C  0.69820867  0.95114228  0.95651337    -0.00500
C1858       C  0.69803835  0.95203431  0.00324078    -0.03100
C1859       C  0.77664827  0.01032487  0.02773135     0.36200
C1860       C  0.67157216  0.93029698  0.93296701     0.39800
C1861       C  0.77678356  0.01054592  0.93355880     0.38900
C1862       C  0.67100986  0.93329027  0.02715644     0.35900
C1863       C  0.72083683  0.51895997  0.06823015     0.36600
C1864       C  0.72392935  0.93227624  0.17763475     0.39800
N1865       N  0.79796482  0.02724643  0.91508984    -0.38300
N1866       N  0.79778243  0.02647946  0.04717597    -0.39800
N1867       N  0.65029098  0.41370522  0.91419963    -0.37600
N1868       N  0.64946540  0.91839826  0.04630223    -0.40000
N1869       N  0.72736434  0.90926298  0.06737511    -0.39800
N1870       N  0.72333866  0.91404655  0.19959802    -0.37400
N1871       N  0.71963171  0.54338624  0.17801980    -0.38400
N1872       N  0.72020610  0.53644541  0.04595914    -0.40100
C1873       C  0.89248281  0.87632612  0.73168916    -0.05000
C1874       C  0.86327996  0.85818332  0.71655605     0.09100
C1875       C  0.85539619  0.86188943  0.67346704    -0.02400
C1876       C  0.87697247  0.88240643  0.64453959    -0.00700
C1877       C  0.90659355  0.90082636  0.65942171    -0.04300
C1878       C  0.91382192  0.89813262  0.70390499     0.02700
C1879       C  0.84064358  0.83530816  0.74630050     0.09600
C1880       C  0.82486283  0.84454805  0.65896509     0.35500
C1881       C  0.94315157  0.91750241  0.72169788     0.38900
C1882       C  0.82909851  0.84365088  0.78179326    -0.04700
C1883       C  0.80726879  0.82209061  0.80933473     0.02500
C1884       C  0.79683406  0.79201012  0.80149409    -0.04300
C1885       C  0.80911198  0.78380636  0.76672345    -0.00500
C1886       C  0.83057119  0.80530391  0.73888350    -0.03100
C1887       C  0.83916287  0.87447562  0.78910918     0.36200
C1888       C  0.80002007  0.75314370  0.75988625     0.39800
C1889       C  0.79485895  0.83106953  0.84442540     0.38900
C1890       C  0.84156945  0.79620524  0.70192477     0.35900
C1891       C  0.90060860  0.87232307  0.77601673     0.36600
C1892       C  0.86827376  0.88387588  0.59937448     0.39800
N1893       N  0.78538675  0.83890649  0.87217345    -0.38300
N1894       N  0.84736190  0.89909319  0.79488454    -0.39800
N1895       N  0.79279541  0.72871593  0.75447702    -0.37600
N1896       N  0.84941054  0.78801766  0.67241060    -0.40000
N1897       N  0.80051124  0.83080992  0.64747350    -0.39800
N1898       N  0.86122359  0.88459495  0.56326282    -0.37400
N1899       N  0.96626991  0.93329582  0.73650576    -0.38400
N1900       N  0.90701075  0.86911968  0.81139787    -0.40100
C1901       C  0.67435166  0.68428649  0.72655683    -0.05000
C1902       C  0.65814128  0.65533717  0.74249826     0.09100
C1903       C  0.66177435  0.64938770  0.78677326    -0.02400
C1904       C  0.68307304  0.67190883  0.81429413    -0.00700
C1905       C  0.70030501  0.70109738  0.79808244    -0.04300
C1906       C  0.69461752  0.70717115  0.75435405     0.02700
C1907       C  0.63662651  0.63121528  0.71261516     0.09600
C1908       C  0.64323007  0.61996307  0.80401135     0.35500
C1909       C  0.70873071  0.73704271  0.73774525     0.38900
C1910       C  0.64418199  0.61190578  0.69256060    -0.04700
C1911       C  0.62417498  0.58958565  0.66350141     0.02500
C1912       C  0.59657009  0.58709112  0.65255031    -0.04300
C1913       C  0.58975277  0.60744951  0.67227757    -0.00500
C1914       C  0.60927667  0.62867390  0.70287832    -0.03100
C1915       C  0.67310493  0.61568382  0.70100757     0.36200
C1916       C  0.56311011  0.60757191  0.66059427     0.39800
C1917       C  0.63278070  0.56985572  0.64447336     0.38900
C1918       C  0.60150969  0.64843845  0.72420114     0.35900
C1919       C  0.67009944  0.69051778  0.68117670     0.36600
C1920       C  0.68723157  0.66436349  0.85883278     0.39800
N1921       N  0.63983502  0.55422726  0.62943238    -0.38300
N1922       N  0.69625064  0.61888887  0.70767032    -0.39800
N1923       N  0.54226000  0.60812996  0.65000381    -0.37600
N1924       N  0.59567545  0.66436564  0.74144059    -0.40000
N1925       N  0.62822286  0.59651704  0.81769248    -0.39800
N1926       N  0.69010899  0.65793628  0.89432343    -0.37400
N1927       N  0.71990514  0.76081354  0.72434243    -0.38400
N1928       N  0.66664162  0.69544871  0.64504808    -0.40100
C1929       C  0.83636041  0.80318523  0.38058532    -0.05000
C1930       C  0.84944602  0.83137741  0.36165017     0.09100
C1931       C  0.83973795  0.83504546  0.31980170    -0.02400
C1932       C  0.81612376  0.81094070  0.29794277    -0.00700
C1933       C  0.80290657  0.78240140  0.31664994    -0.04300
C1934       C  0.81378032  0.77867621  0.35776048     0.02700
C1935       C  0.87314736  0.85752386  0.38588495     0.09600
C1936       C  0.85403394  0.86386116  0.29932152     0.35500
C1937       C  0.80266315  0.74959072  0.37614429     0.38900
C1938       C  0.90243039  0.86306915  0.38711436    -0.04700
C1939       C  0.92484818  0.88862943  0.40827176     0.02500
C1940       C  0.91765914  0.90783630  0.42957470    -0.04300
C1941       C  0.89043507  0.90534936  0.41972058    -0.00500
C1942       C  0.86731088  0.87903185  0.40228341    -0.03100
C1943       C  0.90934684  0.84263236  0.36636180     0.36200
C1944       C  0.89072471  0.93190234  0.40829847     0.39800
C1945       C  0.95554472  0.89786046  0.40152719     0.38900
C1946       C  0.83790951  0.87492107  0.39932475     0.35900
C1947       C  0.84584122  0.79947059  0.42403334     0.36300
C1948       C  0.80498516  0.81610359  0.25691946     0.39800
N1949       N  0.98008125  0.90604832  0.39409568    -0.38300
N1950       N  0.91436793  0.82591842  0.34987941    -0.39800
N1951       N  0.89139948  0.95251457  0.39403875    -0.37600
N1952       N  0.81443345  0.87160772  0.39715869    -0.40000
N1953       N  0.86543074  0.88687216  0.28315993    -0.39800
N1954       N  0.79619862  0.82035002  0.22424683    -0.37400
N1955       N  0.79397070  0.72640542  0.39080043    -0.38400
N1956       N  0.85318994  0.79641672  0.45879498    -0.40100
C1957       C  0.67017328  0.67313776  0.37843557    -0.05000
C1958       C  0.66141633  0.64344961  0.37094207     0.09100
C1959       C  0.67484464  0.63610762  0.33698385    -0.02400
C1960       C  0.69793672  0.65844675  0.31203792    -0.00700
C1961       C  0.70767768  0.68832169  0.32086280    -0.04300
C1962       C  0.69336877  0.69552424  0.35379482     0.02700
C1963       C  0.63961073  0.62028956  0.40125698     0.09600
C1964       C  0.66490678  0.60553611  0.32777102     0.35500
C1965       C  0.70203877  0.72593458  0.36184563     0.38900
C1966       C  0.61002133  0.60172587  0.38800079    -0.04700
C1967       C  0.58933976  0.58114909  0.41800705     0.02500
C1968       C  0.59795827  0.57961263  0.46186153    -0.04300
C1969       C  0.62781455  0.59790316  0.47459718    -0.00500
C1970       C  0.64857524  0.61782302  0.44427998    -0.03100
C1971       C  0.60086270  0.60416557  0.34363552     0.36200
C1972       C  0.63718190  0.59757241  0.51959746     0.39800
C1973       C  0.55955738  0.56098104  0.40301161     0.38900
C1974       C  0.67922209  0.63635565  0.45761378     0.35900
C1975       C  0.65507874  0.68054551  0.41150271     0.36600
C1976       C  0.71238713  0.65061308  0.27847078     0.39800
N1977       N  0.53609818  0.54485370  0.38976328    -0.38300
N1978       N  0.59372451  0.60618852  0.30814623    -0.39800
N1979       N  0.64537002  0.59808535  0.55532323    -0.37600
N1980       N  0.70364082  0.65121157  0.46816029    -0.40000
N1981       N  0.65673766  0.58116253  0.31986381    -0.39800
N1982       N  0.72390270  0.64436993  0.25167812    -0.37400
N1983       N  0.70898370  0.75018714  0.36832962    -0.38400
N1984       N  0.64290304  0.68633621  0.43778834    -0.40100
C1985       C  0.74990200  0.76257556  0.01594060    -0.05000
C1986       C  0.75226266  0.73943009  0.03487420     0.09100
C1987       C  0.75380061  0.71875420  0.00721515    -0.02400
C1988       C  0.75330972  0.72140481  0.96085984    -0.00700
C1989       C  0.74968900  0.74381657  0.94195021    -0.04300
C1990       C  0.74781422  0.76429661  0.96962069     0.02700
C1991       C  0.75259207  0.73654389  0.08406724     0.09600
C1992       C  0.75572273  0.69466288  0.02657158     0.35500
C1993       C  0.74248379  0.78638354  0.95068646     0.38900
C1994       C  0.72629065  0.72624160  0.10822574    -0.04700
C1995       C  0.72662650  0.72441897  0.15475839     0.02500
C1996       C  0.75331674  0.73231434  0.17749391    -0.04300
C1997       C  0.77938671  0.74140071  0.15283287    -0.00500
C1998       C  0.77909930  0.74401534  0.10643585    -0.03100
C1999       C  0.69883520  0.71765818  0.08500857     0.36200
C2000       C  0.80642036  0.74719142  0.17487416     0.39800
C2001       C  0.69956935  0.71533995  0.17893987     0.38900
C2002       C  0.80618692  0.75468986  0.08161765     0.35900
C2003       C  0.74982724  0.78471026  0.04422858     0.36600
C2004       C  0.75750908  0.70164993  0.93262013     0.39800
N2005       N  0.67792076  0.70801346  0.19808913    -0.38300
N2006       N  0.67699564  0.71086774  0.06639896    -0.39800
N2007       N  0.82792571  0.75167180  0.19245039    -0.37600
N2008       N  0.82777605  0.76317530  0.06178483    -0.40000
N2009       N  0.75723447  0.67547702  0.04218060    -0.39800
N2010       N  0.76113801  0.68606453  0.91010523    -0.37400
N2011       N  0.73769314  0.80379170  0.93612735    -0.38400
N2012       N  0.74993243  0.80242016  0.06686798    -0.40100
loop_ 
_geom_bond_atom_site_label_1 
_geom_bond_atom_site_label_2 
_geom_bond_distance 
_geom_bond_site_symmetry_2 
_ccdc_geom_bond_type 
C1            N2   1.360       .  A
C1            N6   1.357       .  A
C1          C452   1.486       .  S
N2            C3   1.359       .  A
C3            N4   1.358       .  A
C3          C424   1.497       .  S
N4            C5   1.357       .  A
C5            N6   1.357       .  A
C5          C487   1.490       .  S
C7            N8   1.355       .  A
C7           N12   1.361       .  A
C7          C396   1.506       .  S
N8            C9   1.354       .  A
C9           N10   1.357       .  A
C9          C375   1.484       .  S
N10          C11   1.360       .  A
C11          N12   1.362       .  A
C11         C480   1.479       .  S
C13          N14   1.363       .  A
C13          N18   1.360       .  A
C13         C284   1.515       .  S
N14          C15   1.362       .  A
C15          N16   1.358       .  A
C15         C340   1.487       .  S
N16          C17   1.356       .  A
C17          N18   1.356       .  A
C17         C312   1.481       .  S
C19          N20   1.362       .  A
C19          N24   1.357       .  A
C19         C228   1.485       .  S
N20          C21   1.365       .  A
C21          N22   1.360       .  A
C21         C263   1.515       .  S
N22          C23   1.358       .  A
C23          N24   1.358       .  A
C23         C347   1.494       .  S
C25          N26   1.362       .  A
C25          N30   1.360       .  A
C25         C172   1.512       .  S
N26          C27   1.361       .  A
C27          N28   1.360       .  A
C27         C207   1.498       .  S
N28          C29   1.357       .  A
C29          N30   1.358       .  A
C29         C151   1.494       .  S
C31          N32   1.361       .  A
C31          N36   1.361       .  A
C31         C116   1.507       .  S
N32          C33   1.360       .  A
C33          N34   1.358       .  A
C33         C200   1.492       .  S
N34          C35   1.355       .  A
C35          N36   1.360       .  A
C35          C95   1.485       .  S
O37         Mn63   2.087       .  S
O37         C567   1.270   1_545  A
C38         C403   1.515       .  S
C38          O71   1.269       .  A
C38          O68   1.274       .  A
O39         Mn46   2.163       .  S
O39         Mn57   2.131       .  S
O39         Mn61   2.171       .  S
O39        Mn566   2.127       .  S
O40         Mn74   2.105       .  S
O40          C50   1.274       .  A
O41         Mn57   2.094       .  S
O41          C64   1.272       .  A
O42         Mn61   2.099       .  S
O42          C69   1.250       .  A
O43         Mn63   1.965       .  S
O43       Mn1080   1.968       .  S
O43          C59   1.217       .  S
C44         C319   1.508       .  S
C44          O47   1.254       .  A
C44          O70   1.223       .  S
O45         Mn46   2.173       .  S
O45         Mn79   2.134       .  S
O45         Mn61   2.169       .  S
O45       Mn1071   2.132       .  S
Mn46         O51   2.086       .  S
Mn46       O1081   2.117       .  S
Mn46        O581   2.112       .  S
Mn46       O1561   2.164       .  S
O47       Mn1067   2.087   1_455  S
O48         Mn55   2.103       .  S
O48          C50   1.274       .  A
C49         C256   1.503       .  S
C49          O75   1.253       .  A
C49          O62   1.229       .  S
C50         C459   1.488       .  S
O51          C76   1.254       .  A
O52         Mn55   2.139       .  S
O52         Mn74   2.118       .  S
O52       Mn1555   2.164   1_445  S
O52       Mn1570   2.155   1_445  S
O53         Mn57   1.964       .  S
O53         Mn79   1.969       .  S
O53          C76   1.223       .  S
C54         C179   1.515       .  S
C54          O56   1.275       .  A
C54        O1086   1.275       .  A
Mn55         O68   2.101       .  S
Mn55        O573   1.961   1_545  S
Mn55        O565   1.992   1_545  S
O56         Mn79   2.095       .  S
Mn57         O73   2.110       .  S
Mn57         O67   1.986       .  S
O58         Mn63   2.098       .  S
O58         C563   1.272   1_545  A
C59         C144   1.507       .  S
C59          O77   1.256       .  A
C60         C235   1.484       .  S
C60          O73   1.274       .  A
C60         O561   1.272       .  A
Mn61       O1053   2.087       .  S
Mn61        O580   2.122       .  S
Mn61       O1561   2.155       .  S
O62         Mn65   1.996       .  S
O62        Mn558   1.992       .  S
Mn63        O542   2.127   1_545  S
Mn63         O81   1.958       .  S
C64         C291   1.514       .  S
C64         O540   1.270       .  A
Mn65         O72   2.100       .  S
Mn65         O80   2.108       .  S
Mn65       O1051   2.132   1_455  S
Mn65         O70   1.976       .  S
C66         C123   1.514       .  S
C66          O82   1.271       .  A
C66        O1078   1.276       .  A
O67         Mn79   1.986       .  S
O67          C69   1.227       .  S
C69         C431   1.489       .  S
O70        Mn558   1.961       .  S
O71         Mn74   2.084       .  S
O72        C1072   1.276   1_455  A
Mn74       O1049   1.968   1_455  S
Mn74       O1087   1.973   1_455  S
O75       Mn1052   2.117   1_455  S
C76         C368   1.499       .  S
O77        Mn564   2.122   1_545  S
O78        Mn549   2.113   1_545  S
O78          C83   1.255       .  A
Mn79         O82   2.093       .  S
O80        C1060   1.275   1_455  A
O81       Mn1080   1.973       .  S
O81          C83   1.218       .  S
C83          C88   1.504       .  S
C84          C85   1.411       .  A
C84          C89   1.416       .  A
C84         C102   1.450       .  S
C85          C90   1.500       .  S
C85          C86   1.407       .  A
C86          C87   1.409       .  A
C86          C91   1.453       .  S
C87          C88   1.427       .  A
C87         C103   1.453       .  S
C88          C89   1.420       .  A
C89        C1098   1.449       .  S
C90          C97   1.412       .  A
C90        C1099   1.414       .  A
C91         N108   1.157       .  T
C92        C1095   1.449   1_455  S
C92         N110   1.157       .  T
C93          C94   1.408       .  A
C93        C1096   1.414   1_455  A
C93          C98   1.449       .  S
C94        C1101   1.410   1_455  A
C94         C100   1.452       .  S
C95          C96   1.415       .  A
C95        C1100   1.410       .  A
C96          C97   1.414       .  A
C96          C99   1.450       .  S
C97         C101   1.451       .  S
C98         N105   1.157       .  T
C99         N106   1.157       .  T
C100        N104   1.157       .  T
C101        N107   1.157       .  T
C102       N1117   1.157       .  T
C103        N109   1.158       .  T
N111       C1108   1.157       .  T
C112        C113   1.410       .  A
C112        C117   1.414       .  A
C112        C130   1.451       .  S
C113        C118   1.503       .  S
C113        C114   1.408       .  A
C114        C115   1.414       .  A
C114       C1125   1.452       .  S
C115        C116   1.424       .  A
C115       C1137   1.451       .  S
C116        C117   1.423       .  A
C117        C120   1.452       .  S
C118        C121   1.408       .  A
C118       C1131   1.409       .  A
C119       C1120   1.452       .  S
C119        N136   1.157   1_655  T
C120        N138   1.157       .  T
C121        C122   1.414       .  A
C121        C126   1.452       .  S
C122        C123   1.424       .  A
C122        C128   1.445       .  S
C123       C1130   1.424       .  A
C124        C125   1.412   1_455  A
C124       C1129   1.424   1_455  A
C124        C127   1.452       .  S
C125       C1124   1.409       .  A
C125        C129   1.451   1_655  S
C126        N133   1.157       .  T
C127        N134   1.157       .  T
C128        N132   1.156       .  T
C129        N135   1.157       .  T
C130        N139   1.158       .  T
C131       C1121   1.451   1_455  S
C131        N137   1.158       .  T
C140        C145   1.413   1_655  A
C140       C1147   1.409       .  A
C140        C158   1.452   1_655  S
C141        C146   1.506       .  S
C141        C142   1.413       .  A
C141       C1146   1.409       .  A
C142        C143   1.419       .  A
C142        C147   1.450       .  S
C143        C144   1.420       .  A
C143        C159   1.449       .  S
C144       C1151   1.424       .  A
C145       C1150   1.424   1_455  A
C145        C148   1.451       .  S
C146        C153   1.415       .  A
C146       C1155   1.413       .  A
C147        N164   1.157       .  T
C148        N166   1.158       .  T
C149        C150   1.415   1_655  A
C149       C1152   1.413       .  A
C149        C154   1.450   1_655  S
C150       C1157   1.416   1_455  A
C150        C156   1.450       .  S
C151        C152   1.414       .  A
C151       C1156   1.416       .  A
C152        C153   1.412       .  A
C152        C155   1.453       .  S
C153        C157   1.448       .  S
C154        N161   1.157       .  T
C155        N162   1.157       .  T
C156        N160   1.157       .  T
C157        N163   1.157       .  T
C158        N167   1.157       .  T
C159        N668   1.157   1_545  T
N165        C662   1.157       .  T
C168        C169   1.408       .  A
C168        C173   1.413       .  A
C168        C186   1.452       .  S
C169        C174   1.502       .  S
C169        C170   1.408       .  A
C170        C171   1.415       .  A
C170        C175   1.451       .  S
C171        C172   1.426       .  A
C171        C187   1.451       .  S
C172        C173   1.426       .  A
C173        C176   1.452       .  S
C174        C181   1.407       .  A
C174       C1183   1.406       .  A
C175        N192   1.157       .  T
C176        N194   1.158       .  T
C177        C178   1.414       .  A
C177       C1180   1.406   1_455  A
C177        C182   1.452       .  S
C178       C1185   1.424   1_455  A
C178        C184   1.446       .  S
C179        C180   1.427       .  A
C179       C1184   1.424       .  A
C180        C181   1.415       .  A
C180        C183   1.452       .  S
C181        C185   1.451       .  S
C182        N189   1.157       .  T
C183        N190   1.157       .  T
C184        N188   1.155       .  T
C185        N191   1.157       .  T
C186        N195   1.157       .  T
C187        N193   1.157       .  T
C196        C197   1.409       .  A
C196        C201   1.411   1_554  A
C196        C214   1.451       .  S
C197        C202   1.497       .  S
C197        C198   1.410       .  A
C198        C199   1.412   1_554  A
C198        C203   1.450       .  S
C199        C200   1.417       .  A
C199        C215   1.451       .  S
C200        C201   1.419       .  A
C201        C204   1.452       .  S
C202        C209   1.408       .  A
C202       C1211   1.409       .  A
C203        N220   1.157       .  T
C204        N222   1.158       .  T
C205        C206   1.414       .  A
C205       C1208   1.409   1_455  A
C205        C210   1.451       .  S
C206       C1213   1.420   1_455  A
C206        C212   1.451       .  S
C207        C208   1.420       .  A
C207       C1212   1.420       .  A
C208        C209   1.410       .  A
C208        C211   1.451       .  S
C209        C213   1.452       .  S
C210        N217   1.157       .  T
C211        N218   1.158       .  T
C212        N216   1.157       .  T
C213        N219   1.157       .  T
C214        N223   1.157       .  T
C215        N221   1.157       .  T
C224        C229   1.414       .  A
C224        C728   1.413   1_545  A
C224        C242   1.451       .  S
C225        C230   1.501       .  S
C225        C226   1.412       .  A
C225        C727   1.413       .  A
C226        C227   1.413       .  A
C226        C231   1.450       .  S
C227        C228   1.412       .  A
C227        C243   1.450       .  S
C228        C732   1.412       .  A
C229        C731   1.412   1_545  A
C229        C232   1.450       .  S
C230        C233   1.413       .  A
C230        C237   1.410       .  A
C231        N248   1.157       .  T
C232        N250   1.157       .  T
C233        C234   1.416       .  A
C233        C741   1.449       .  S
C234        C235   1.412       .  A
C234        C743   1.449       .  S
C235        C236   1.412       .  A
C236        C237   1.409       .  A
C236        C239   1.449       .  S
C237        C241   1.452       .  S
C238        C736   1.449       .  S
C238        N245   1.157       .  T
C239        N246   1.156       .  T
C240        C737   1.449       .  S
C240        N244   1.157       .  T
C241        N247   1.157       .  T
C242        N251   1.157       .  T
C243        N249   1.157       .  T
C252        C257   1.413       .  A
C252        C756   1.414       .  A
C252        C270   1.450   1_565  S
C253        C258   1.508       .  S
C253        C254   1.414       .  A
C253        C755   1.414       .  A
C254        C255   1.415       .  A
C254        C259   1.450       .  S
C255        C256   1.408       .  A
C255        C271   1.440       .  S
C256        C760   1.405       .  A
C257        C759   1.405       .  A
C257        C260   1.441   1_565  S
C258        C261   1.410       .  A
C258        C265   1.411       .  A
C259        N276   1.157       .  T
C260        N278   1.156       .  T
C261        C262   1.414       .  A
C261        C769   1.453       .  S
C262        C263   1.427       .  A
C262        C771   1.452       .  S
C263        C264   1.425       .  A
C264        C265   1.418       .  A
C264        C267   1.451       .  S
C265        C269   1.451       .  S
C266        C764   1.453       .  S
C266        N273   1.157       .  T
C267        N274   1.157       .  T
C268        C765   1.452       .  S
C268        N272   1.158   1_565  T
C269        N275   1.158       .  T
C270        N279   1.157       .  T
C271        N277   1.156   1_455  T
C280        C281   1.405       .  A
C280        C285   1.410       .  A
C280        C298   1.453       .  S
C281        C286   1.498       .  S
C281        C282   1.406       .  A
C282        C283   1.416       .  A
C282        C287   1.452       .  S
C283        C284   1.428       .  A
C283        C299   1.450       .  S
C284        C285   1.428       .  A
C285        C288   1.451       .  S
C286        C289   1.407       .  A
C286        C293   1.407       .  A
C287        N304   1.157       .  T
C288        N306   1.157       .  T
C289        C290   1.413       .  A
C289        C294   1.452       .  S
C290        C291   1.427       .  A
C290        C296   1.451       .  S
C291        C292   1.423       .  A
C292        C293   1.411       .  A
C292        C798   1.445       .  S
C293        C800   1.452       .  S
C294        N301   1.157       .  T
C295        C795   1.445       .  S
C295        N302   1.156       .  T
C296        N300   1.157       .  T
C297        C796   1.452       .  S
C297        N303   1.157       .  T
C298        N307   1.157       .  T
C299        N305   1.157       .  T
C308        C309   1.414       .  A
C308        C313   1.410       .  A
C308        C326   1.450       .  S
C309        C314   1.499       .  S
C309        C310   1.412       .  A
C310        C311   1.410       .  A
C310        C818   1.451       .  S
C311        C312   1.413       .  A
C311        C830   1.450       .  S
C312        C313   1.411       .  A
C313        C316   1.451       .  S
C314        C317   1.409       .  A
C314        C321   1.408       .  A
C315        C813   1.451       .  S
C315        N332   1.157       .  T
C316        N334   1.157       .  T
C317        C318   1.411       .  A
C317        C322   1.453       .  S
C318        C319   1.428       .  A
C318        C324   1.454       .  S
C319        C320   1.426       .  A
C320        C321   1.411       .  A
C320        C323   1.451       .  S
C321        C325   1.452       .  S
C322        N329   1.158       .  T
C323        N330   1.158       .  T
C324        N328   1.157       .  T
C325        N331   1.157       .  T
C326        N335   1.157       .  T
C327        C814   1.450       .  S
C327        N333   1.157       .  T
C336        C337   1.412       .  A
C336        C341   1.411       .  A
C336        C857   1.451       .  S
C337        C342   1.500       .  S
C337        C338   1.412       .  A
C338        C339   1.413       .  A
C338        C343   1.450       .  S
C339        C340   1.414       .  A
C339        C355   1.450       .  S
C340        C341   1.414       .  A
C341        C847   1.451       .  S
C342        C345   1.411       .  A
C342        C349   1.411       .  A
C343        N360   1.157       .  T
C344        C844   1.451   1_545  S
C344        N362   1.157       .  T
C345        C346   1.412   1_554  A
C345        C350   1.451       .  S
C346        C347   1.418       .  A
C346        C352   1.452       .  S
C347        C348   1.418       .  A
C348        C349   1.413   1_556  A
C348        C351   1.451       .  S
C349        C353   1.451       .  S
C350        N357   1.157       .  T
C351        N861   1.158       .  T
C352        N356   1.157       .  T
C353        N359   1.157       .  T
C354        C839   1.451   1_545  S
C354        N363   1.157       .  T
C355        N361   1.158       .  T
N358        C854   1.158       .  T
C364        C365   1.409       .  A
C364        C369   1.410       .  A
C364        C382   1.452       .  S
C365        C370   1.495       .  S
C365        C366   1.408       .  A
C366        C367   1.410       .  A
C366        C371   1.452       .  S
C367        C368   1.425       .  A
C367        C383   1.452       .  S
C368        C369   1.422       .  A
C369        C372   1.451       .  S
C370        C373   1.412       .  A
C370        C377   1.412       .  A
C371        N388   1.157       .  T
C372        N390   1.157       .  T
C373        C374   1.411       .  A
C373        C378   1.452       .  S
C374        C375   1.414       .  A
C374        C380   1.448       .  S
C375        C376   1.414       .  A
C376        C377   1.407       .  A
C376        C379   1.453       .  S
C377        C381   1.450       .  S
C378        N385   1.157       .  T
C379        N386   1.158       .  T
C380        N384   1.156       .  T
C381        N387   1.157       .  T
C382        N391   1.157       .  T
C383        N389   1.157       .  T
C392        C393   1.407       .  A
C392        C397   1.409       .  A
C392        C410   1.453       .  S
C393        C398   1.499       .  S
C393        C394   1.408       .  A
C394        C395   1.414       .  A
C394        C399   1.451       .  S
C395        C396   1.424       .  A
C395        C411   1.450       .  S
C396        C397   1.425       .  A
C397        C400   1.452       .  S
C398        C401   1.408       .  A
C398        C405   1.405       .  A
C399        N416   1.157       .  T
C400        N418   1.158       .  T
C401        C402   1.414       .  A
C401        C406   1.452       .  S
C402        C403   1.427       .  A
C402        C408   1.451       .  S
C403        C404   1.427       .  A
C404        C405   1.410       .  A
C404        C407   1.447       .  S
C405        C409   1.453       .  S
C406        N413   1.157       .  T
C407        N414   1.156       .  T
C408        N412   1.158       .  T
C409        N415   1.157       .  T
C410        N419   1.157       .  T
C411        N417   1.157       .  T
C420        C421   1.409       .  A
C420        C425   1.412       .  A
C420        C438   1.450       .  S
C421        C426   1.497       .  S
C421        C422   1.411       .  A
C422        C423   1.410       .  A
C422        C427   1.453       .  S
C423        C424   1.420       .  A
C423        C439   1.452       .  S
C424        C425   1.420       .  A
C425        C428   1.451       .  S
C426        C429   1.414       .  A
C426        C433   1.410       .  A
C427        N444   1.158       .  T
C428        N446   1.158       .  T
C429        C430   1.414       .  A
C429        C434   1.447       .  S
C430        C431   1.408       .  A
C430        C436   1.446       .  S
C431        C432   1.400       .  A
C432        C433   1.403       .  A
C432        C435   1.438       .  S
C433        C437   1.451       .  S
C434        N441   1.156       .  T
C435        N442   1.156       .  T
C436        N440   1.157       .  T
C437        N443   1.157       .  T
C438        N447   1.157       .  T
C439        N445   1.157       .  T
C448        C449   1.411       .  A
C448        C453   1.409       .  A
C448        C466   1.451       .  S
C449        C454   1.496       .  S
C449        C450   1.410       .  A
C450        C451   1.411       .  A
C450        C455   1.450       .  S
C451        C452   1.416       .  A
C451        C467   1.451       .  S
C452        C453   1.414       .  A
C453        C456   1.451       .  S
C454        C457   1.410       .  A
C454        C461   1.409       .  A
C455        N472   1.157       .  T
C456        N474   1.157       .  T
C457        C458   1.413       .  A
C457        C462   1.450       .  S
C458        C459   1.414       .  A
C458        C464   1.446       .  S
C459        C460   1.414       .  A
C460        C461   1.408       .  A
C460        C463   1.447       .  S
C461        C465   1.453       .  S
C462        N469   1.157       .  T
C463        N470   1.155       .  T
C464        N468   1.156       .  T
C465        N471   1.157       .  T
C466        N475   1.157       .  T
C467        N473   1.157       .  T
C476        C477   1.412       .  A
C476        C481   1.410   1_554  A
C476        C494   1.451       .  S
C477        C482   1.495       .  S
C477        C478   1.411       .  A
C478        C479   1.409   1_554  A
C478        C483   1.451       .  S
C479        C480   1.412       .  A
C479        C495   1.451       .  S
C480        C481   1.411       .  A
C481        C484   1.449       .  S
C482        C485   1.410       .  A
C482        C489   1.410       .  A
C483        N500   1.157       .  T
C484        N502   1.157       .  T
C485        C486   1.410       .  A
C485        C490   1.452       .  S
C486        C487   1.418       .  A
C486        C492   1.451       .  S
C487        C488   1.417       .  A
C488        C489   1.409       .  A
C488        C491   1.452       .  S
C489        C493   1.451       .  S
C490        N497   1.157       .  T
C491        N498   1.157       .  T
C492        N496   1.158       .  T
C493        N499   1.157       .  T
C494        N503   1.157       .  T
C495        N501   1.157       .  T
C504        N505   1.360       .  A
C504        N509   1.357       .  A
C504        C955   1.486       .  S
N505        C506   1.359       .  A
C506        N507   1.358       .  A
C506        C927   1.497       .  S
N507        C508   1.357       .  A
C508        N509   1.357       .  A
C508        C990   1.490       .  S
C510        N511   1.355       .  A
C510        N515   1.361       .  A
C510        C899   1.506       .  S
N511        C512   1.354       .  A
C512        N513   1.357       .  A
C512        C878   1.484       .  S
N513        C514   1.360       .  A
C514        N515   1.362       .  A
C514        C983   1.479       .  S
C516        N517   1.363       .  A
C516        N521   1.360       .  A
C516        C787   1.515       .  S
N517        C518   1.362       .  A
C518        N519   1.358       .  A
C518        C843   1.487       .  S
N519        C520   1.356       .  A
C520        N521   1.356       .  A
C520        C815   1.481       .  S
C522        N523   1.362       .  A
C522        N527   1.357       .  A
C522        C731   1.485       .  S
N523        C524   1.365       .  A
C524        N525   1.360       .  A
C524        C766   1.515       .  S
N525        C526   1.358       .  A
C526        N527   1.358       .  A
C526        C850   1.494       .  S
C528        N529   1.362       .  A
C528        N533   1.360       .  A
C528        C675   1.512       .  S
N529        C530   1.361       .  A
C530        N531   1.360       .  A
C530        C710   1.498       .  S
N531        C532   1.357       .  A
C532        N533   1.358       .  A
C532        C654   1.494       .  S
C534        N535   1.361       .  A
C534        N539   1.361       .  A
C534        C619   1.507       .  S
N535        C536   1.360       .  A
C536        N537   1.358       .  A
C536        C703   1.492       .  S
N537        C538   1.355       .  A
C538        N539   1.360       .  A
C538        C598   1.485       .  S
O540       Mn566   2.087       .  S
C541        C906   1.515       .  S
C541        O574   1.269       .  A
C541        O571   1.274       .  A
O542       Mn549   2.163       .  S
O542       Mn560   2.131       .  S
O542       Mn564   2.171       .  S
O543       Mn577   2.105       .  S
O543        C553   1.274       .  A
O544       Mn560   2.094       .  S
O544        C567   1.272       .  A
O545       Mn564   2.099       .  S
O545        C572   1.250       .  A
O546      Mn1583   1.968       .  S
O546       Mn566   1.965       .  S
O546        C562   1.217       .  S
C547        C822   1.508       .  S
C547        O550   1.254       .  A
C547        O573   1.223       .  S
O548      Mn1574   2.132       .  S
O548       Mn549   2.173       .  S
O548       Mn582   2.134       .  S
O548       Mn564   2.169       .  S
Mn549      O1584   2.117       .  S
Mn549       O554   2.086       .  S
Mn549      O1058   2.164   1_565  S
O550      Mn1570   2.087   1_455  S
O551       Mn558   2.103       .  S
O551        C553   1.274       .  A
C552        C759   1.503       .  S
C552        O578   1.253       .  A
C552        O565   1.229       .  S
C553        C962   1.488       .  S
O554        C579   1.254       .  A
O555      Mn1052   2.164   1_455  S
O555       Mn558   2.139       .  S
O555       Mn577   2.118       .  S
O555      Mn1067   2.155   1_455  S
O556       Mn560   1.964       .  S
O556       Mn582   1.969       .  S
O556        C579   1.223       .  S
C557        C682   1.515       .  S
C557       O1589   1.275       .  A
C557        O559   1.275       .  A
Mn558       O571   2.101       .  S
O559       Mn582   2.095       .  S
Mn560       O576   2.110       .  S
Mn560       O570   1.986       .  S
O561       Mn566   2.098       .  S
C562        C647   1.507       .  S
C562        O580   1.256       .  A
C563        C738   1.484       .  S
C563        O576   1.274       .  A
Mn564      O1556   2.087       .  S
Mn564      O1058   2.155   1_565  S
O565       Mn568   1.996       .  S
Mn566       O584   1.958       .  S
C567        C794   1.514       .  S
Mn568       O575   2.100       .  S
Mn568       O583   2.108       .  S
Mn568      O1554   2.132   1_455  S
Mn568       O573   1.976       .  S
C569        C626   1.514       .  S
C569       O1581   1.276       .  A
C569        O585   1.271       .  A
O570       Mn582   1.986       .  S
O570        C572   1.227       .  S
C572        C934   1.489       .  S
O574       Mn577   2.084       .  S
O575       C1575   1.276   1_455  A
Mn577      O1552   1.968   1_455  S
Mn577      O1590   1.973   1_455  S
O578      Mn1555   2.117   1_455  S
C579        C871   1.499       .  S
O581        C586   1.255       .  A
Mn582       O585   2.093       .  S
O583       C1563   1.275   1_455  A
O584      Mn1583   1.973       .  S
O584        C586   1.218       .  S
C586        C591   1.504       .  S
C587        C588   1.411       .  A
C587        C592   1.416       .  A
C587        C605   1.450       .  S
C588        C593   1.500       .  S
C588        C589   1.407       .  A
C589        C590   1.409       .  A
C589        C594   1.453       .  S
C590        C591   1.427       .  A
C590        C606   1.453       .  S
C591        C592   1.420       .  A
C592       C1601   1.449       .  S
C593       C1602   1.414       .  A
C593        C600   1.412       .  A
C594        N611   1.157       .  T
C595       C1598   1.449   1_455  S
C595        N613   1.157       .  T
C596       C1599   1.414   1_455  A
C596        C597   1.408       .  A
C596        C601   1.449       .  S
C597       C1604   1.410   1_455  A
C597        C603   1.452       .  S
C598       C1603   1.410       .  A
C598        C599   1.415       .  A
C599        C600   1.414       .  A
C599        C602   1.450       .  S
C600        C604   1.451       .  S
C601        N608   1.157       .  T
C602        N609   1.157       .  T
C603        N607   1.157       .  T
C604        N610   1.157       .  T
C605       N1620   1.157       .  T
C606        N612   1.158       .  T
N614       C1611   1.157       .  T
C615        C616   1.410       .  A
C615        C620   1.414       .  A
C615        C633   1.451       .  S
C616        C621   1.503       .  S
C616        C617   1.408       .  A
C617        C618   1.414       .  A
C617       C1628   1.452       .  S
C618        C619   1.424       .  A
C618       C1640   1.451       .  S
C619        C620   1.423       .  A
C620        C623   1.452       .  S
C621        C624   1.408       .  A
C621       C1634   1.409       .  A
C622       C1623   1.452       .  S
C622        N639   1.157   1_655  T
C623        N641   1.157       .  T
C624        C625   1.414       .  A
C624        C629   1.452       .  S
C625        C626   1.424       .  A
C625        C631   1.445       .  S
C626       C1633   1.424       .  A
C627       C1632   1.424   1_455  A
C627        C628   1.412   1_455  A
C627        C630   1.452       .  S
C628       C1627   1.409       .  A
C628        C632   1.451   1_655  S
C629        N636   1.157       .  T
C630        N637   1.157       .  T
C631        N635   1.156       .  T
C632        N638   1.157       .  T
C633        N642   1.158       .  T
C634       C1624   1.451   1_455  S
C634        N640   1.158       .  T
C643       C1650   1.409       .  A
C643        C648   1.413   1_655  A
C643        C661   1.452   1_655  S
C644        C649   1.506       .  S
C644       C1649   1.409       .  A
C644        C645   1.413       .  A
C645        C646   1.419       .  A
C645        C650   1.450       .  S
C646        C647   1.420       .  A
C646        C662   1.449       .  S
C647       C1654   1.424       .  A
C648       C1653   1.424   1_455  A
C648        C651   1.451       .  S
C649       C1658   1.413       .  A
C649        C656   1.415       .  A
C650        N667   1.157       .  T
C651        N669   1.158       .  T
C652       C1655   1.413       .  A
C652        C653   1.415   1_655  A
C652        C657   1.450   1_655  S
C653       C1660   1.416   1_455  A
C653        C659   1.450       .  S
C654       C1659   1.416       .  A
C654        C655   1.414       .  A
C655        C656   1.412       .  A
C655        C658   1.453       .  S
C656        C660   1.448       .  S
C657        N664   1.157       .  T
C658        N665   1.157       .  T
C659        N663   1.157       .  T
C660        N666   1.157       .  T
C661        N670   1.157       .  T
C671        C672   1.408       .  A
C671        C676   1.413       .  A
C671        C689   1.452       .  S
C672        C677   1.502       .  S
C672        C673   1.408       .  A
C673        C674   1.415       .  A
C673        C678   1.451       .  S
C674        C675   1.426       .  A
C674        C690   1.451       .  S
C675        C676   1.426       .  A
C676        C679   1.452       .  S
C677       C1686   1.406       .  A
C677        C684   1.407       .  A
C678        N695   1.157       .  T
C679        N697   1.158       .  T
C680       C1683   1.406   1_455  A
C680        C681   1.414       .  A
C680        C685   1.452       .  S
C681       C1688   1.424   1_455  A
C681        C687   1.446       .  S
C682       C1687   1.424       .  A
C682        C683   1.427       .  A
C683        C684   1.415       .  A
C683        C686   1.452       .  S
C684        C688   1.451       .  S
C685        N692   1.157       .  T
C686        N693   1.157       .  T
C687        N691   1.155       .  T
C688        N694   1.157       .  T
C689        N698   1.157       .  T
C690        N696   1.157       .  T
C699        C700   1.409       .  A
C699        C704   1.411   1_554  A
C699        C717   1.451       .  S
C700        C705   1.497       .  S
C700        C701   1.410       .  A
C701        C702   1.412   1_554  A
C701        C706   1.450       .  S
C702        C703   1.417       .  A
C702        C718   1.451       .  S
C703        C704   1.419       .  A
C704        C707   1.452       .  S
C705       C1714   1.409       .  A
C705        C712   1.408       .  A
C706        N723   1.157       .  T
C707        N725   1.158       .  T
C708       C1711   1.409   1_455  A
C708        C709   1.414       .  A
C708        C713   1.451       .  S
C709       C1716   1.420   1_455  A
C709        C715   1.451       .  S
C710       C1715   1.420       .  A
C710        C711   1.420       .  A
C711        C712   1.410       .  A
C711        C714   1.451       .  S
C712        C716   1.452       .  S
C713        N720   1.157       .  T
C714        N721   1.158       .  T
C715        N719   1.157       .  T
C716        N722   1.157       .  T
C717        N726   1.157       .  T
C718        N724   1.157       .  T
C727        C732   1.414       .  A
C727        C745   1.450       .  S
C728        C733   1.501       .  S
C728        C729   1.412       .  A
C729        C730   1.413       .  A
C729        C734   1.450       .  S
C730        C731   1.412       .  A
C730        C746   1.450       .  S
C732        C735   1.450       .  S
C733        C736   1.413       .  A
C733        C740   1.410       .  A
C734        N751   1.157       .  T
C735        N753   1.157       .  T
C736        C737   1.416       .  A
C737        C738   1.412       .  A
C738        C739   1.412       .  A
C739        C740   1.409       .  A
C739        C742   1.449       .  S
C740        C744   1.452       .  S
C741        N748   1.157       .  T
C742        N749   1.156       .  T
C743        N747   1.157       .  T
C744        N750   1.157       .  T
C745        N754   1.157       .  T
C746        N752   1.157       .  T
C755        C760   1.413       .  A
C755        C773   1.450       .  S
C756        C761   1.508       .  S
C756        C757   1.414       .  A
C757        C758   1.415       .  A
C757        C762   1.450       .  S
C758        C759   1.408       .  A
C758        C774   1.440       .  S
C760        C763   1.441       .  S
C761        C764   1.410       .  A
C761        C768   1.411       .  A
C762        N779   1.157       .  T
C763        N781   1.156       .  T
C764        C765   1.414       .  A
C765        C766   1.427       .  A
C766        C767   1.425       .  A
C767        C768   1.418       .  A
C767        C770   1.451       .  S
C768        C772   1.451       .  S
C769        N776   1.157       .  T
C770        N777   1.157       .  T
C771        N775   1.158       .  T
C772        N778   1.158       .  T
C773        N782   1.157       .  T
C774        N780   1.156   1_455  T
C783        C784   1.405       .  A
C783        C788   1.410   1_565  A
C783        C801   1.453   1_565  S
C784        C789   1.498       .  S
C784        C785   1.406       .  A
C785        C786   1.416       .  A
C785        C790   1.452       .  S
C786        C787   1.428       .  A
C786        C802   1.450       .  S
C787        C788   1.428   1_565  A
C788        C791   1.451       .  S
C789        C792   1.407       .  A
C789        C796   1.407   1_565  A
C790        N807   1.157       .  T
C791        N809   1.157       .  T
C792        C793   1.413       .  A
C792        C797   1.452       .  S
C793        C794   1.427       .  A
C793        C799   1.451       .  S
C794        C795   1.423   1_565  A
C795        C796   1.411       .  A
C797        N804   1.157       .  T
C798        N805   1.156       .  T
C799        N803   1.157       .  T
C800        N806   1.157       .  T
C801        N810   1.157       .  T
C802        N808   1.157       .  T
C811        C812   1.414       .  A
C811        C816   1.410       .  A
C811        C829   1.450       .  S
C812        C817   1.499       .  S
C812        C813   1.412   1_565  A
C813        C814   1.410       .  A
C814        C815   1.413   1_545  A
C815        C816   1.411       .  A
C816        C819   1.451       .  S
C817        C820   1.409       .  A
C817        C824   1.408       .  A
C818        N835   1.157       .  T
C819        N837   1.157       .  T
C820        C821   1.411       .  A
C820        C825   1.453       .  S
C821        C822   1.428       .  A
C821        C827   1.454       .  S
C822        C823   1.426       .  A
C823        C824   1.411       .  A
C823        C826   1.451       .  S
C824        C828   1.452       .  S
C825        N832   1.158       .  T
C826        N833   1.158       .  T
C827        N831   1.157       .  T
C828        N834   1.157       .  T
C829        N838   1.157       .  T
C830        N836   1.157       .  T
C839        C840   1.412       .  A
C839        C844   1.411       .  A
C840        C845   1.500       .  S
C840        C841   1.412       .  A
C841        C842   1.413       .  A
C841        C846   1.450       .  S
C842        C843   1.414       .  A
C842        C858   1.450       .  S
C843        C844   1.414       .  A
C845        C848   1.411       .  A
C845        C852   1.411       .  A
C846        N863   1.157       .  T
C847        N865   1.157       .  T
C848        C849   1.412   1_554  A
C848        C853   1.451   1_565  S
C849        C850   1.418       .  A
C849        C855   1.452   1_565  S
C850        C851   1.418       .  A
C851        C852   1.413   1_556  A
C851        C854   1.451       .  S
C852        C856   1.451       .  S
C853        N860   1.157       .  T
C855        N859   1.157       .  T
C856        N862   1.157       .  T
C857        N866   1.157       .  T
C858        N864   1.158       .  T
C867        C868   1.409       .  A
C867        C872   1.410       .  A
C867        C885   1.452       .  S
C868        C873   1.495       .  S
C868        C869   1.408       .  A
C869        C870   1.410       .  A
C869        C874   1.452       .  S
C870        C871   1.425       .  A
C870        C886   1.452       .  S
C871        C872   1.422       .  A
C872        C875   1.451       .  S
C873        C876   1.412       .  A
C873        C880   1.412       .  A
C874        N891   1.157       .  T
C875        N893   1.157       .  T
C876        C877   1.411       .  A
C876        C881   1.452       .  S
C877        C878   1.414       .  A
C877        C883   1.448       .  S
C878        C879   1.414       .  A
C879        C880   1.407       .  A
C879        C882   1.453       .  S
C880        C884   1.450       .  S
C881        N888   1.157       .  T
C882        N889   1.158       .  T
C883        N887   1.156       .  T
C884        N890   1.157       .  T
C885        N894   1.157       .  T
C886        N892   1.157       .  T
C895        C896   1.407       .  A
C895        C900   1.409       .  A
C895        C913   1.453       .  S
C896        C901   1.499       .  S
C896        C897   1.408       .  A
C897        C898   1.414       .  A
C897        C902   1.451       .  S
C898        C899   1.424       .  A
C898        C914   1.450       .  S
C899        C900   1.425       .  A
C900        C903   1.453       .  S
C901        C904   1.408       .  A
C901        C908   1.405       .  A
C902        N919   1.157       .  T
C903        N921   1.158       .  T
C904        C905   1.414       .  A
C904        C909   1.452       .  S
C905        C906   1.427       .  A
C905        C911   1.451       .  S
C906        C907   1.427       .  A
C907        C908   1.410       .  A
C907        C910   1.447       .  S
C908        C912   1.453       .  S
C909        N916   1.157       .  T
C910        N917   1.156       .  T
C911        N915   1.158       .  T
C912        N918   1.157       .  T
C913        N922   1.157       .  T
C914        N920   1.157       .  T
C923        C924   1.409       .  A
C923        C928   1.412       .  A
C923        C941   1.450       .  S
C924        C929   1.497       .  S
C924        C925   1.411       .  A
C925        C926   1.410       .  A
C925        C930   1.453       .  S
C926        C927   1.420       .  A
C926        C942   1.452       .  S
C927        C928   1.420       .  A
C928        C931   1.451       .  S
C929        C932   1.414       .  A
C929        C936   1.410       .  A
C930        N947   1.158       .  T
C931        N949   1.158       .  T
C932        C933   1.414       .  A
C932        C937   1.447       .  S
C933        C934   1.408       .  A
C933        C939   1.446       .  S
C934        C935   1.400       .  A
C935        C936   1.403       .  A
C935        C938   1.438       .  S
C936        C940   1.451       .  S
C937        N944   1.156       .  T
C938        N945   1.156       .  T
C939        N943   1.157       .  T
C940        N946   1.157       .  T
C941        N950   1.157       .  T
C942        N948   1.157       .  T
C951        C952   1.411       .  A
C951        C956   1.409       .  A
C951        C969   1.451       .  S
C952        C957   1.496       .  S
C952        C953   1.410       .  A
C953        C954   1.411       .  A
C953        C958   1.450       .  S
C954        C955   1.416       .  A
C954        C970   1.451       .  S
C955        C956   1.414       .  A
C956        C959   1.451       .  S
C957        C960   1.410       .  A
C957        C964   1.409       .  A
C958        N975   1.157       .  T
C959        N977   1.157       .  T
C960        C961   1.413       .  A
C960        C965   1.450       .  S
C961        C962   1.414       .  A
C961        C967   1.446       .  S
C962        C963   1.414       .  A
C963        C964   1.408       .  A
C963        C966   1.447       .  S
C964        C968   1.453       .  S
C965        N972   1.157       .  T
C966        N973   1.155       .  T
C967        N971   1.156       .  T
C968        N974   1.157       .  T
C969        N978   1.157       .  T
C970        N976   1.157       .  T
C979        C980   1.412       .  A
C979        C984   1.410   1_554  A
C979        C997   1.451       .  S
C980        C985   1.495       .  S
C980        C981   1.411       .  A
C981        C982   1.409   1_554  A
C981        C986   1.451       .  S
C982        C983   1.412       .  A
C982        C998   1.451       .  S
C983        C984   1.411       .  A
C984        C987   1.449       .  S
C985        C988   1.410       .  A
C985        C992   1.410       .  A
C986       N1003   1.157       .  T
C987       N1005   1.157       .  T
C988        C989   1.410       .  A
C988        C993   1.452       .  S
C989        C990   1.418       .  A
C989        C995   1.451       .  S
C990        C991   1.417       .  A
C991        C992   1.409       .  A
C991        C994   1.452       .  S
C992        C996   1.451       .  S
C993       N1000   1.157       .  T
C994       N1001   1.157       .  T
C995        N999   1.158       .  T
C996       N1002   1.157       .  T
C997       N1006   1.157       .  T
C998       N1004   1.157       .  T
C1007      N1008   1.360       .  A
C1007      N1012   1.357       .  A
C1007      C1458   1.486       .  S
N1008      C1009   1.359       .  A
C1009      N1010   1.358       .  A
C1009      C1430   1.497       .  S
N1010      C1011   1.357       .  A
C1011      N1012   1.357       .  A
C1011      C1493   1.490       .  S
C1013      N1014   1.355       .  A
C1013      N1018   1.361       .  A
C1013      C1402   1.506       .  S
N1014      C1015   1.354       .  A
C1015      N1016   1.357       .  A
C1015      C1381   1.484       .  S
N1016      C1017   1.360       .  A
C1017      N1018   1.362       .  A
C1017      C1486   1.479       .  S
C1019      N1020   1.363       .  A
C1019      N1024   1.360       .  A
C1019      C1290   1.515       .  S
N1020      C1021   1.362       .  A
C1021      N1022   1.358       .  A
C1021      C1346   1.487       .  S
N1022      C1023   1.356       .  A
C1023      N1024   1.356       .  A
C1023      C1318   1.481       .  S
C1025      N1026   1.362       .  A
C1025      N1030   1.357       .  A
C1025      C1234   1.485       .  S
N1026      C1027   1.365       .  A
C1027      N1028   1.360       .  A
C1027      C1269   1.515       .  S
N1028      C1029   1.358       .  A
C1029      N1030   1.358       .  A
C1029      C1353   1.494       .  S
C1031      N1032   1.362       .  A
C1031      N1036   1.360       .  A
C1031      C1178   1.512       .  S
N1032      C1033   1.361       .  A
C1033      N1034   1.360       .  A
C1033      C1213   1.498       .  S
N1034      C1035   1.357       .  A
C1035      N1036   1.358       .  A
C1035      C1157   1.494       .  S
C1037      N1038   1.361       .  A
C1037      N1042   1.361       .  A
C1037      C1122   1.507       .  S
N1038      C1039   1.360       .  A
C1039      N1040   1.358       .  A
C1039      C1206   1.492       .  S
N1040      C1041   1.355       .  A
C1041      N1042   1.360       .  A
C1041      C1101   1.485       .  S
O1043     Mn1069   2.087       .  S
O1043      C1573   1.270   1_545  A
C1044      C1409   1.515       .  S
C1044      O1077   1.269       .  A
C1044      O1074   1.274       .  A
O1045     Mn1052   2.163       .  S
O1045     Mn1063   2.131       .  S
O1045     Mn1067   2.171       .  S
O1045     Mn1572   2.127       .  S
O1046     Mn1080   2.105       .  S
O1046      C1056   1.274       .  A
O1047     Mn1063   2.094       .  S
O1047      C1070   1.272       .  A
O1048     Mn1067   2.099       .  S
O1048      C1075   1.250       .  A
O1049     Mn1069   1.965       .  S
O1049      C1065   1.217       .  S
C1050      C1325   1.508       .  S
C1050      O1053   1.254       .  A
C1050      O1076   1.223       .  S
O1051     Mn1052   2.173       .  S
O1051     Mn1085   2.134       .  S
O1051     Mn1067   2.169       .  S
Mn1052     O1057   2.086       .  S
Mn1052     O1587   2.113       .  S
O1054     Mn1061   2.103       .  S
O1054      C1056   1.274       .  A
C1055      C1262   1.503       .  S
C1055      O1081   1.253       .  A
C1055      O1068   1.229       .  S
C1056      C1465   1.488       .  S
O1057      C1082   1.254       .  A
O1058     Mn1061   2.139       .  S
O1058     Mn1080   2.118       .  S
O1059     Mn1063   1.964       .  S
O1059     Mn1085   1.969       .  S
O1059      C1082   1.223       .  S
C1060      C1185   1.515       .  S
C1060      O1062   1.275       .  A
Mn1061     O1074   2.101       .  S
Mn1061     O1579   1.961   1_545  S
Mn1061     O1571   1.992   1_545  S
O1062     Mn1085   2.095       .  S
Mn1063     O1079   2.110       .  S
Mn1063     O1073   1.986       .  S
O1064     Mn1069   2.098       .  S
O1064      C1569   1.272   1_545  A
C1065      C1150   1.507       .  S
C1065      O1083   1.256       .  A
C1066      C1241   1.484       .  S
C1066      O1567   1.272       .  A
C1066      O1079   1.274       .  A
Mn1067     O1586   2.122       .  S
O1068     Mn1564   1.992       .  S
O1068     Mn1071   1.996       .  S
Mn1069     O1548   2.127   1_545  S
Mn1069     O1087   1.958       .  S
C1070      C1297   1.514       .  S
C1070      O1546   1.270       .  A
Mn1071     O1078   2.100       .  S
Mn1071     O1086   2.108       .  S
Mn1071     O1076   1.976       .  S
C1072      C1129   1.514       .  S
C1072      O1088   1.271       .  A
O1073     Mn1085   1.986       .  S
O1073      C1075   1.227       .  S
C1075      C1437   1.489       .  S
O1076     Mn1564   1.961       .  S
O1077     Mn1080   2.084       .  S
C1082      C1374   1.499       .  S
O1083     Mn1570   2.122   1_545  S
O1084     Mn1555   2.113   1_545  S
O1084      C1089   1.255       .  A
Mn1085     O1088   2.093       .  S
O1087      C1089   1.218       .  S
C1089      C1094   1.504       .  S
C1090      C1091   1.411       .  A
C1090      C1095   1.416       .  A
C1090      C1108   1.450   1_655  S
C1091      C1096   1.500       .  S
C1091      C1092   1.407       .  A
C1092      C1093   1.409       .  A
C1092      C1097   1.453       .  S
C1093      C1094   1.427       .  A
C1093      C1109   1.453       .  S
C1094      C1095   1.420       .  A
C1096      C1103   1.412       .  A
C1097      N1114   1.157       .  T
C1098      N1116   1.157       .  T
C1099      C1100   1.408       .  A
C1099      C1104   1.449       .  S
C1100      C1106   1.452       .  S
C1101      C1102   1.415       .  A
C1102      C1103   1.414       .  A
C1102      C1105   1.450       .  S
C1103      C1107   1.451       .  S
C1104      N1111   1.157       .  T
C1105      N1112   1.157       .  T
C1106      N1110   1.157       .  T
C1107      N1113   1.157       .  T
C1109      N1115   1.158       .  T
C1118      C1119   1.410       .  A
C1118      C1123   1.414       .  A
C1118      C1136   1.451       .  S
C1119      C1124   1.503       .  S
C1119      C1120   1.408       .  A
C1120      C1121   1.414       .  A
C1121      C1122   1.424       .  A
C1122      C1123   1.423       .  A
C1123      C1126   1.452       .  S
C1124      C1127   1.408       .  A
C1125      N1142   1.157       .  T
C1126      N1144   1.157       .  T
C1127      C1128   1.414       .  A
C1127      C1132   1.452       .  S
C1128      C1129   1.424       .  A
C1128      C1134   1.445       .  S
C1130      C1131   1.412       .  A
C1130      C1133   1.452       .  S
C1131      C1135   1.451       .  S
C1132      N1139   1.157       .  T
C1133      N1140   1.157       .  T
C1134      N1138   1.156       .  T
C1135      N1141   1.157       .  T
C1136      N1145   1.158       .  T
C1137      N1143   1.158       .  T
C1146      C1151   1.413       .  A
C1146      C1164   1.452       .  S
C1147      C1152   1.506       .  S
C1147      C1148   1.413       .  A
C1148      C1149   1.419       .  A
C1148      C1153   1.450       .  S
C1149      C1150   1.420       .  A
C1149      C1165   1.449       .  S
C1151      C1154   1.451       .  S
C1152      C1159   1.415       .  A
C1153      N1170   1.157       .  T
C1154      N1172   1.158       .  T
C1155      C1156   1.415       .  A
C1155      C1160   1.450       .  S
C1156      C1162   1.450       .  S
C1157      C1158   1.414       .  A
C1158      C1159   1.412       .  A
C1158      C1161   1.453       .  S
C1159      C1163   1.448       .  S
C1160      N1167   1.157       .  T
C1161      N1168   1.157       .  T
C1162      N1166   1.157       .  T
C1163      N1169   1.157       .  T
C1164      N1173   1.157       .  T
C1165      N1674   1.157   1_545  T
N1171      C1668   1.157       .  T
C1174      C1175   1.408       .  A
C1174      C1179   1.413   1_655  A
C1174      C1192   1.452   1_655  S
C1175      C1180   1.502       .  S
C1175      C1176   1.408       .  A
C1176      C1177   1.415       .  A
C1176      C1181   1.451       .  S
C1177      C1178   1.426       .  A
C1177      C1193   1.451       .  S
C1178      C1179   1.426   1_655  A
C1179      C1182   1.452       .  S
C1180      C1187   1.407       .  A
C1181      N1198   1.157       .  T
C1182      N1200   1.158       .  T
C1183      C1184   1.414       .  A
C1183      C1188   1.452       .  S
C1184      C1190   1.446       .  S
C1185      C1186   1.427       .  A
C1186      C1187   1.415       .  A
C1186      C1189   1.452       .  S
C1187      C1191   1.451       .  S
C1188      N1195   1.157       .  T
C1189      N1196   1.157       .  T
C1190      N1194   1.155       .  T
C1191      N1197   1.157       .  T
C1192      N1201   1.157       .  T
C1193      N1199   1.157       .  T
C1202      C1203   1.409   1_455  A
C1202      C1207   1.410   1_554  A
C1202      C1220   1.451       .  S
C1203      C1208   1.497       .  S
C1203      C1204   1.410       .  A
C1204      C1205   1.412   1_554  A
C1204      C1209   1.450       .  S
C1205      C1206   1.417       .  A
C1205      C1221   1.451       .  S
C1206      C1207   1.419   1_655  A
C1207      C1210   1.452       .  S
C1208      C1215   1.408       .  A
C1209      N1226   1.157       .  T
C1210      N1228   1.158       .  T
C1211      C1212   1.414       .  A
C1211      C1216   1.451       .  S
C1212      C1218   1.451       .  S
C1213      C1214   1.420       .  A
C1214      C1215   1.410       .  A
C1214      C1217   1.451       .  S
C1215      C1219   1.452       .  S
C1216      N1223   1.157       .  T
C1217      N1224   1.158       .  T
C1218      N1222   1.157       .  T
C1219      N1225   1.157       .  T
C1220      N1229   1.157       .  T
C1221      N1227   1.157       .  T
C1230      C1734   1.413   1_545  A
C1230      C1235   1.414       .  A
C1230      C1248   1.450       .  S
C1231      C1236   1.501       .  S
C1231      C1733   1.413       .  A
C1231      C1232   1.412       .  A
C1232      C1233   1.413       .  A
C1232      C1237   1.450       .  S
C1233      C1234   1.412       .  A
C1233      C1249   1.450       .  S
C1234      C1738   1.412       .  A
C1235      C1737   1.412   1_545  A
C1235      C1238   1.450       .  S
C1236      C1239   1.413       .  A
C1236      C1243   1.410       .  A
C1237      N1254   1.157       .  T
C1238      N1256   1.157       .  T
C1239      C1240   1.416       .  A
C1239      C1747   1.449       .  S
C1240      C1241   1.412       .  A
C1240      C1749   1.449       .  S
C1241      C1242   1.412       .  A
C1242      C1243   1.409       .  A
C1242      C1245   1.449       .  S
C1243      C1247   1.452       .  S
C1244      C1742   1.449       .  S
C1244      N1251   1.157       .  T
C1245      N1252   1.156       .  T
C1246      C1743   1.449       .  S
C1246      N1250   1.157       .  T
C1247      N1253   1.157       .  T
C1248      N1257   1.157       .  T
C1249      N1255   1.157       .  T
C1258      C1762   1.414       .  A
C1258      C1263   1.413       .  A
C1258      C1276   1.450   1_565  S
C1259      C1264   1.508       .  S
C1259      C1761   1.414       .  A
C1259      C1260   1.414       .  A
C1260      C1261   1.415       .  A
C1260      C1265   1.450       .  S
C1261      C1262   1.408       .  A
C1261      C1277   1.440       .  S
C1262      C1766   1.405       .  A
C1263      C1765   1.405       .  A
C1263      C1266   1.441   1_565  S
C1264      C1267   1.410       .  A
C1264      C1271   1.411       .  A
C1265      N1282   1.157       .  T
C1266      N1284   1.156       .  T
C1267      C1268   1.414       .  A
C1267      C1775   1.453       .  S
C1268      C1269   1.427       .  A
C1268      C1777   1.452       .  S
C1269      C1270   1.425       .  A
C1270      C1271   1.418       .  A
C1270      C1273   1.451       .  S
C1271      C1275   1.451       .  S
C1272      C1770   1.453       .  S
C1272      N1279   1.157       .  T
C1273      N1280   1.157       .  T
C1274      C1771   1.452       .  S
C1274      N1278   1.158   1_565  T
C1275      N1281   1.158       .  T
C1276      N1285   1.157       .  T
C1277      N1283   1.156       .  T
C1286      C1287   1.405       .  A
C1286      C1291   1.410       .  A
C1286      C1304   1.453       .  S
C1287      C1292   1.498       .  S
C1287      C1288   1.406       .  A
C1288      C1289   1.416       .  A
C1288      C1293   1.452       .  S
C1289      C1290   1.428       .  A
C1289      C1305   1.450       .  S
C1290      C1291   1.428       .  A
C1291      C1294   1.451       .  S
C1292      C1295   1.407       .  A
C1292      C1299   1.407       .  A
C1293      N1310   1.157       .  T
C1294      N1312   1.157       .  T
C1295      C1296   1.413       .  A
C1295      C1300   1.452       .  S
C1296      C1297   1.427       .  A
C1296      C1302   1.451       .  S
C1297      C1298   1.423       .  A
C1298      C1299   1.411       .  A
C1298      C1804   1.445       .  S
C1299      C1806   1.452       .  S
C1300      N1307   1.157       .  T
C1301      C1801   1.445       .  S
C1301      N1308   1.156       .  T
C1302      N1306   1.157       .  T
C1303      C1802   1.452       .  S
C1303      N1309   1.157       .  T
C1304      N1313   1.157       .  T
C1305      N1311   1.157       .  T
C1314      C1315   1.414       .  A
C1314      C1319   1.410       .  A
C1314      C1332   1.450       .  S
C1315      C1320   1.499       .  S
C1315      C1316   1.412       .  A
C1316      C1317   1.410       .  A
C1316      C1824   1.451       .  S
C1317      C1318   1.413       .  A
C1317      C1836   1.450       .  S
C1318      C1319   1.411       .  A
C1319      C1322   1.451       .  S
C1320      C1323   1.409       .  A
C1320      C1327   1.408       .  A
C1321      C1819   1.451       .  S
C1321      N1338   1.157       .  T
C1322      N1340   1.157       .  T
C1323      C1324   1.411       .  A
C1323      C1328   1.453       .  S
C1324      C1325   1.428       .  A
C1324      C1330   1.454       .  S
C1325      C1326   1.426       .  A
C1326      C1327   1.411       .  A
C1326      C1329   1.451       .  S
C1327      C1331   1.452       .  S
C1328      N1335   1.158       .  T
C1329      N1336   1.158       .  T
C1330      N1334   1.157       .  T
C1331      N1337   1.157       .  T
C1332      N1341   1.157       .  T
C1333      C1820   1.450       .  S
C1333      N1339   1.157       .  T
C1342      C1343   1.412       .  A
C1342      C1347   1.411       .  A
C1342      C1863   1.451       .  S
C1343      C1348   1.500       .  S
C1343      C1344   1.412       .  A
C1344      C1345   1.413       .  A
C1344      C1349   1.450       .  S
C1345      C1346   1.414       .  A
C1345      C1361   1.450       .  S
C1346      C1347   1.414       .  A
C1347      C1853   1.451       .  S
C1348      C1351   1.411       .  A
C1348      C1355   1.411       .  A
C1349      N1366   1.157       .  T
C1350      C1850   1.451   1_545  S
C1350      N1368   1.157       .  T
C1351      C1352   1.412   1_554  A
C1351      C1356   1.451       .  S
C1352      C1353   1.418       .  A
C1352      C1358   1.452       .  S
C1353      C1354   1.418       .  A
C1354      C1355   1.413   1_556  A
C1354      C1357   1.451       .  S
C1355      C1359   1.451       .  S
C1356      N1363   1.157       .  T
C1357      N1867   1.158       .  T
C1358      N1362   1.157       .  T
C1359      N1365   1.157       .  T
C1360      C1845   1.451   1_545  S
C1360      N1369   1.157       .  T
C1361      N1367   1.158       .  T
N1364      C1860   1.158       .  T
C1370      C1371   1.409       .  A
C1370      C1375   1.410       .  A
C1370      C1388   1.452       .  S
C1371      C1376   1.495       .  S
C1371      C1372   1.408       .  A
C1372      C1373   1.410       .  A
C1372      C1377   1.452       .  S
C1373      C1374   1.425       .  A
C1373      C1389   1.452       .  S
C1374      C1375   1.422       .  A
C1375      C1378   1.451       .  S
C1376      C1379   1.412       .  A
C1376      C1383   1.412       .  A
C1377      N1394   1.157       .  T
C1378      N1396   1.157       .  T
C1379      C1380   1.411       .  A
C1379      C1384   1.452       .  S
C1380      C1381   1.414       .  A
C1380      C1386   1.448       .  S
C1381      C1382   1.414       .  A
C1382      C1383   1.407       .  A
C1382      C1385   1.453       .  S
C1383      C1387   1.450       .  S
C1384      N1391   1.157       .  T
C1385      N1392   1.158       .  T
C1386      N1390   1.156       .  T
C1387      N1393   1.157       .  T
C1388      N1397   1.157       .  T
C1389      N1395   1.157       .  T
C1398      C1399   1.407       .  A
C1398      C1403   1.409       .  A
C1398      C1416   1.453       .  S
C1399      C1404   1.499       .  S
C1399      C1400   1.408       .  A
C1400      C1401   1.414       .  A
C1400      C1405   1.451       .  S
C1401      C1402   1.424       .  A
C1401      C1417   1.450       .  S
C1402      C1403   1.425       .  A
C1403      C1406   1.452       .  S
C1404      C1407   1.408       .  A
C1404      C1411   1.405       .  A
C1405      N1422   1.157       .  T
C1406      N1424   1.158       .  T
C1407      C1408   1.414       .  A
C1407      C1412   1.452       .  S
C1408      C1409   1.427       .  A
C1408      C1414   1.451       .  S
C1409      C1410   1.427       .  A
C1410      C1411   1.410       .  A
C1410      C1413   1.447       .  S
C1411      C1415   1.453       .  S
C1412      N1419   1.157       .  T
C1413      N1420   1.156       .  T
C1414      N1418   1.158       .  T
C1415      N1421   1.157       .  T
C1416      N1425   1.157       .  T
C1417      N1423   1.157       .  T
C1426      C1427   1.409       .  A
C1426      C1431   1.412       .  A
C1426      C1444   1.450       .  S
C1427      C1432   1.497       .  S
C1427      C1428   1.411       .  A
C1428      C1429   1.410       .  A
C1428      C1433   1.453       .  S
C1429      C1430   1.420       .  A
C1429      C1445   1.452       .  S
C1430      C1431   1.420       .  A
C1431      C1434   1.451       .  S
C1432      C1435   1.414       .  A
C1432      C1439   1.410       .  A
C1433      N1450   1.158       .  T
C1434      N1452   1.158       .  T
C1435      C1436   1.414       .  A
C1435      C1440   1.447       .  S
C1436      C1437   1.408       .  A
C1436      C1442   1.446       .  S
C1437      C1438   1.400       .  A
C1438      C1439   1.403       .  A
C1438      C1441   1.438       .  S
C1439      C1443   1.451       .  S
C1440      N1447   1.156       .  T
C1441      N1448   1.156       .  T
C1442      N1446   1.157       .  T
C1443      N1449   1.157       .  T
C1444      N1453   1.157       .  T
C1445      N1451   1.157       .  T
C1454      C1455   1.411       .  A
C1454      C1459   1.409       .  A
C1454      C1472   1.451       .  S
C1455      C1460   1.496       .  S
C1455      C1456   1.410       .  A
C1456      C1457   1.411       .  A
C1456      C1461   1.450       .  S
C1457      C1458   1.416       .  A
C1457      C1473   1.451       .  S
C1458      C1459   1.414       .  A
C1459      C1462   1.451       .  S
C1460      C1463   1.410       .  A
C1460      C1467   1.409       .  A
C1461      N1478   1.157       .  T
C1462      N1480   1.157       .  T
C1463      C1464   1.413       .  A
C1463      C1468   1.450       .  S
C1464      C1465   1.414       .  A
C1464      C1470   1.446       .  S
C1465      C1466   1.414       .  A
C1466      C1467   1.408       .  A
C1466      C1469   1.447       .  S
C1467      C1471   1.453       .  S
C1468      N1475   1.157       .  T
C1469      N1476   1.155       .  T
C1470      N1474   1.156       .  T
C1471      N1477   1.157       .  T
C1472      N1481   1.157       .  T
C1473      N1479   1.157       .  T
C1482      C1483   1.412       .  A
C1482      C1487   1.410   1_554  A
C1482      C1500   1.451       .  S
C1483      C1488   1.495       .  S
C1483      C1484   1.411       .  A
C1484      C1485   1.409   1_554  A
C1484      C1489   1.451       .  S
C1485      C1486   1.412       .  A
C1485      C1501   1.451       .  S
C1486      C1487   1.411       .  A
C1487      C1490   1.449       .  S
C1488      C1491   1.410       .  A
C1488      C1495   1.410       .  A
C1489      N1506   1.157       .  T
C1490      N1508   1.157       .  T
C1491      C1492   1.410       .  A
C1491      C1496   1.452       .  S
C1492      C1493   1.418       .  A
C1492      C1498   1.451       .  S
C1493      C1494   1.417       .  A
C1494      C1495   1.409       .  A
C1494      C1497   1.452       .  S
C1495      C1499   1.451       .  S
C1496      N1503   1.157       .  T
C1497      N1504   1.157       .  T
C1498      N1502   1.158       .  T
C1499      N1505   1.157       .  T
C1500      N1509   1.157       .  T
C1501      N1507   1.157       .  T
C1510      N1511   1.360       .  A
C1510      N1515   1.357       .  A
C1510      C1961   1.486       .  S
N1511      C1512   1.359       .  A
C1512      N1513   1.358       .  A
C1512      C1933   1.497       .  S
N1513      C1514   1.357       .  A
C1514      N1515   1.357       .  A
C1514      C1996   1.490       .  S
C1516      N1517   1.355       .  A
C1516      N1521   1.361       .  A
C1516      C1905   1.506       .  S
N1517      C1518   1.354       .  A
C1518      N1519   1.357       .  A
C1518      C1884   1.484       .  S
N1519      C1520   1.360       .  A
C1520      N1521   1.362       .  A
C1520      C1989   1.479       .  S
C1522      N1523   1.363       .  A
C1522      N1527   1.360       .  A
C1522      C1793   1.515       .  S
N1523      C1524   1.362       .  A
C1524      N1525   1.358       .  A
C1524      C1849   1.487       .  S
N1525      C1526   1.356       .  A
C1526      N1527   1.356       .  A
C1526      C1821   1.481       .  S
C1528      N1529   1.362       .  A
C1528      N1533   1.357       .  A
C1528      C1737   1.485       .  S
N1529      C1530   1.365       .  A
C1530      N1531   1.360       .  A
C1530      C1772   1.515       .  S
N1531      C1532   1.358       .  A
C1532      N1533   1.358       .  A
C1532      C1856   1.494       .  S
C1534      N1535   1.362       .  A
C1534      N1539   1.360       .  A
C1534      C1681   1.512       .  S
N1535      C1536   1.361       .  A
C1536      N1537   1.360       .  A
C1536      C1716   1.498       .  S
N1537      C1538   1.357       .  A
C1538      N1539   1.358       .  A
C1538      C1660   1.494       .  S
C1540      N1541   1.361       .  A
C1540      N1545   1.361       .  A
C1540      C1625   1.507       .  S
N1541      C1542   1.360       .  A
C1542      N1543   1.358       .  A
C1542      C1709   1.492       .  S
N1543      C1544   1.355       .  A
C1544      N1545   1.360       .  A
C1544      C1604   1.485       .  S
O1546     Mn1572   2.087       .  S
C1547      C1912   1.515       .  S
C1547      O1580   1.269       .  A
C1547      O1577   1.274       .  A
O1548     Mn1555   2.163       .  S
O1548     Mn1566   2.131       .  S
O1548     Mn1570   2.171       .  S
O1549     Mn1583   2.105       .  S
O1549      C1559   1.274       .  A
O1550     Mn1566   2.094       .  S
O1550      C1573   1.272       .  A
O1551     Mn1570   2.100       .  S
O1551      C1578   1.250       .  A
O1552     Mn1572   1.965       .  S
O1552      C1568   1.217       .  S
C1553      C1828   1.508       .  S
C1553      O1556   1.254       .  A
C1553      O1579   1.223       .  S
O1554     Mn1555   2.173       .  S
O1554     Mn1588   2.134       .  S
O1554     Mn1570   2.169       .  S
Mn1555     O1560   2.086       .  S
O1557     Mn1564   2.103       .  S
O1557      C1559   1.274       .  A
C1558      C1765   1.503       .  S
C1558      O1584   1.253       .  A
C1558      O1571   1.229       .  S
C1559      C1968   1.488       .  S
O1560      C1585   1.254       .  A
O1561     Mn1564   2.139       .  S
O1561     Mn1583   2.118       .  S
O1562     Mn1566   1.964       .  S
O1562     Mn1588   1.969       .  S
O1562      C1585   1.223       .  S
C1563      C1688   1.515       .  S
C1563      O1565   1.275       .  A
Mn1564     O1577   2.101       .  S
O1565     Mn1588   2.095       .  S
Mn1566     O1582   2.110       .  S
Mn1566     O1576   1.986       .  S
O1567     Mn1572   2.098       .  S
C1568      C1653   1.507       .  S
C1568      O1586   1.256       .  A
C1569      C1744   1.484       .  S
C1569      O1582   1.274       .  A
O1571     Mn1574   1.996       .  S
Mn1572     O1590   1.958       .  S
C1573      C1800   1.514       .  S
Mn1574     O1581   2.100       .  S
Mn1574     O1589   2.108       .  S
Mn1574     O1579   1.976       .  S
C1575      C1632   1.514       .  S
C1575      O1591   1.271       .  A
O1576     Mn1588   1.986       .  S
O1576      C1578   1.227       .  S
C1578      C1940   1.489       .  S
O1580     Mn1583   2.084       .  S
C1585      C1877   1.499       .  S
O1587      C1592   1.255       .  A
Mn1588     O1591   2.093       .  S
O1590      C1592   1.218       .  S
C1592      C1597   1.504       .  S
C1593      C1594   1.411       .  A
C1593      C1598   1.416       .  A
C1593      C1611   1.450   1_655  S
C1594      C1599   1.500       .  S
C1594      C1595   1.407       .  A
C1595      C1596   1.409       .  A
C1595      C1600   1.453       .  S
C1596      C1597   1.427       .  A
C1596      C1612   1.453       .  S
C1597      C1598   1.420       .  A
C1599      C1606   1.412       .  A
C1600      N1617   1.157       .  T
C1601      N1619   1.157       .  T
C1602      C1603   1.408       .  A
C1602      C1607   1.449       .  S
C1603      C1609   1.452       .  S
C1604      C1605   1.415       .  A
C1605      C1606   1.414       .  A
C1605      C1608   1.450       .  S
C1606      C1610   1.451       .  S
C1607      N1614   1.157       .  T
C1608      N1615   1.157       .  T
C1609      N1613   1.157       .  T
C1610      N1616   1.157       .  T
C1612      N1618   1.158       .  T
C1621      C1622   1.410       .  A
C1621      C1626   1.414       .  A
C1621      C1639   1.451       .  S
C1622      C1627   1.503       .  S
C1622      C1623   1.408       .  A
C1623      C1624   1.414       .  A
C1624      C1625   1.424       .  A
C1625      C1626   1.423       .  A
C1626      C1629   1.452       .  S
C1627      C1630   1.408       .  A
C1628      N1645   1.157       .  T
C1629      N1647   1.157       .  T
C1630      C1631   1.414       .  A
C1630      C1635   1.452       .  S
C1631      C1632   1.424       .  A
C1631      C1637   1.445       .  S
C1633      C1634   1.412       .  A
C1633      C1636   1.452       .  S
C1634      C1638   1.451       .  S
C1635      N1642   1.157       .  T
C1636      N1643   1.157       .  T
C1637      N1641   1.156       .  T
C1638      N1644   1.157       .  T
C1639      N1648   1.158       .  T
C1640      N1646   1.158       .  T
C1649      C1654   1.413       .  A
C1649      C1667   1.452       .  S
C1650      C1655   1.506       .  S
C1650      C1651   1.413       .  A
C1651      C1652   1.419       .  A
C1651      C1656   1.450       .  S
C1652      C1653   1.420       .  A
C1652      C1668   1.449       .  S
C1654      C1657   1.451       .  S
C1655      C1662   1.415       .  A
C1656      N1673   1.157       .  T
C1657      N1675   1.158       .  T
C1658      C1659   1.415       .  A
C1658      C1663   1.450       .  S
C1659      C1665   1.450       .  S
C1660      C1661   1.414       .  A
C1661      C1662   1.412       .  A
C1661      C1664   1.453       .  S
C1662      C1666   1.448       .  S
C1663      N1670   1.157       .  T
C1664      N1671   1.157       .  T
C1665      N1669   1.157       .  T
C1666      N1672   1.157       .  T
C1667      N1676   1.157       .  T
C1677      C1678   1.408       .  A
C1677      C1682   1.413   1_655  A
C1677      C1695   1.452   1_655  S
C1678      C1683   1.502       .  S
C1678      C1679   1.408       .  A
C1679      C1680   1.415       .  A
C1679      C1684   1.451       .  S
C1680      C1681   1.426       .  A
C1680      C1696   1.451       .  S
C1681      C1682   1.426   1_655  A
C1682      C1685   1.452       .  S
C1683      C1690   1.407       .  A
C1684      N1701   1.157       .  T
C1685      N1703   1.158       .  T
C1686      C1687   1.414       .  A
C1686      C1691   1.452       .  S
C1687      C1693   1.446       .  S
C1688      C1689   1.427       .  A
C1689      C1690   1.415       .  A
C1689      C1692   1.452       .  S
C1690      C1694   1.451       .  S
C1691      N1698   1.157       .  T
C1692      N1699   1.157       .  T
C1693      N1697   1.155       .  T
C1694      N1700   1.157       .  T
C1695      N1704   1.157       .  T
C1696      N1702   1.157       .  T
C1705      C1706   1.409   1_455  A
C1705      C1710   1.411   1_554  A
C1705      C1723   1.451       .  S
C1706      C1711   1.497       .  S
C1706      C1707   1.410       .  A
C1707      C1708   1.412   1_554  A
C1707      C1712   1.450       .  S
C1708      C1709   1.417       .  A
C1708      C1724   1.451       .  S
C1709      C1710   1.419   1_655  A
C1710      C1713   1.452       .  S
C1711      C1718   1.408       .  A
C1712      N1729   1.157       .  T
C1713      N1731   1.158       .  T
C1714      C1715   1.414       .  A
C1714      C1719   1.451       .  S
C1715      C1721   1.451       .  S
C1716      C1717   1.420       .  A
C1717      C1718   1.410       .  A
C1717      C1720   1.451       .  S
C1718      C1722   1.452       .  S
C1719      N1726   1.157       .  T
C1720      N1727   1.158       .  T
C1721      N1725   1.157       .  T
C1722      N1728   1.157       .  T
C1723      N1732   1.157       .  T
C1724      N1730   1.157       .  T
C1733      C1738   1.414       .  A
C1733      C1751   1.451       .  S
C1734      C1739   1.501       .  S
C1734      C1735   1.412       .  A
C1735      C1736   1.413       .  A
C1735      C1740   1.450       .  S
C1736      C1737   1.412       .  A
C1736      C1752   1.450       .  S
C1738      C1741   1.450       .  S
C1739      C1742   1.413       .  A
C1739      C1746   1.410       .  A
C1740      N1757   1.157       .  T
C1741      N1759   1.157       .  T
C1742      C1743   1.416       .  A
C1743      C1744   1.412       .  A
C1744      C1745   1.412       .  A
C1745      C1746   1.409       .  A
C1745      C1748   1.449       .  S
C1746      C1750   1.452       .  S
C1747      N1754   1.157       .  T
C1748      N1755   1.156       .  T
C1749      N1753   1.157       .  T
C1750      N1756   1.157       .  T
C1751      N1760   1.157       .  T
C1752      N1758   1.157       .  T
C1761      C1766   1.413       .  A
C1761      C1779   1.450       .  S
C1762      C1767   1.508       .  S
C1762      C1763   1.414       .  A
C1763      C1764   1.415       .  A
C1763      C1768   1.450       .  S
C1764      C1765   1.408       .  A
C1764      C1780   1.440       .  S
C1766      C1769   1.441       .  S
C1767      C1770   1.410       .  A
C1767      C1774   1.411       .  A
C1768      N1785   1.157       .  T
C1769      N1787   1.156       .  T
C1770      C1771   1.414       .  A
C1771      C1772   1.427       .  A
C1772      C1773   1.425       .  A
C1773      C1774   1.418       .  A
C1773      C1776   1.451       .  S
C1774      C1778   1.451       .  S
C1775      N1782   1.157       .  T
C1776      N1783   1.157       .  T
C1777      N1781   1.158       .  T
C1778      N1784   1.158       .  T
C1779      N1788   1.157       .  T
C1780      N1786   1.156       .  T
C1789      C1790   1.405       .  A
C1789      C1794   1.410   1_565  A
C1789      C1807   1.453   1_565  S
C1790      C1795   1.498       .  S
C1790      C1791   1.406       .  A
C1791      C1792   1.416       .  A
C1791      C1796   1.452       .  S
C1792      C1793   1.428       .  A
C1792      C1808   1.450       .  S
C1793      C1794   1.428   1_565  A
C1794      C1797   1.451       .  S
C1795      C1798   1.407       .  A
C1795      C1802   1.407   1_565  A
C1796      N1813   1.157       .  T
C1797      N1815   1.157       .  T
C1798      C1799   1.413       .  A
C1798      C1803   1.452       .  S
C1799      C1800   1.427       .  A
C1799      C1805   1.451       .  S
C1800      C1801   1.423   1_565  A
C1801      C1802   1.411       .  A
C1803      N1810   1.157       .  T
C1804      N1811   1.156       .  T
C1805      N1809   1.157       .  T
C1806      N1812   1.157       .  T
C1807      N1816   1.157       .  T
C1808      N1814   1.157       .  T
C1817      C1818   1.414       .  A
C1817      C1822   1.410       .  A
C1817      C1835   1.450       .  S
C1818      C1823   1.499       .  S
C1818      C1819   1.412   1_565  A
C1819      C1820   1.410       .  A
C1820      C1821   1.413   1_545  A
C1821      C1822   1.411       .  A
C1822      C1825   1.451       .  S
C1823      C1826   1.409       .  A
C1823      C1830   1.408       .  A
C1824      N1841   1.157       .  T
C1825      N1843   1.157       .  T
C1826      C1827   1.411       .  A
C1826      C1831   1.453       .  S
C1827      C1828   1.428       .  A
C1827      C1833   1.454       .  S
C1828      C1829   1.426       .  A
C1829      C1830   1.411       .  A
C1829      C1832   1.451       .  S
C1830      C1834   1.452       .  S
C1831      N1838   1.158       .  T
C1832      N1839   1.158       .  T
C1833      N1837   1.157       .  T
C1834      N1840   1.157       .  T
C1835      N1844   1.157       .  T
C1836      N1842   1.157       .  T
C1845      C1846   1.412       .  A
C1845      C1850   1.411       .  A
C1846      C1851   1.500       .  S
C1846      C1847   1.412       .  A
C1847      C1848   1.413       .  A
C1847      C1852   1.450       .  S
C1848      C1849   1.414       .  A
C1848      C1864   1.450       .  S
C1849      C1850   1.414       .  A
C1851      C1854   1.411       .  A
C1851      C1858   1.411       .  A
C1852      N1869   1.157       .  T
C1853      N1871   1.157       .  T
C1854      C1855   1.412   1_554  A
C1854      C1859   1.451   1_565  S
C1855      C1856   1.418       .  A
C1855      C1861   1.452   1_565  S
C1856      C1857   1.418       .  A
C1857      C1858   1.413   1_556  A
C1857      C1860   1.451       .  S
C1858      C1862   1.451       .  S
C1859      N1866   1.157       .  T
C1861      N1865   1.157       .  T
C1862      N1868   1.157       .  T
C1863      N1872   1.157       .  T
C1864      N1870   1.158       .  T
C1873      C1874   1.409       .  A
C1873      C1878   1.410       .  A
C1873      C1891   1.452       .  S
C1874      C1879   1.495       .  S
C1874      C1875   1.408       .  A
C1875      C1876   1.410       .  A
C1875      C1880   1.452       .  S
C1876      C1877   1.425       .  A
C1876      C1892   1.452       .  S
C1877      C1878   1.422       .  A
C1878      C1881   1.451       .  S
C1879      C1882   1.412       .  A
C1879      C1886   1.412       .  A
C1880      N1897   1.157       .  T
C1881      N1899   1.157       .  T
C1882      C1883   1.411       .  A
C1882      C1887   1.452       .  S
C1883      C1884   1.414       .  A
C1883      C1889   1.448       .  S
C1884      C1885   1.414       .  A
C1885      C1886   1.407       .  A
C1885      C1888   1.453       .  S
C1886      C1890   1.450       .  S
C1887      N1894   1.157       .  T
C1888      N1895   1.158       .  T
C1889      N1893   1.156       .  T
C1890      N1896   1.157       .  T
C1891      N1900   1.157       .  T
C1892      N1898   1.157       .  T
C1901      C1902   1.407       .  A
C1901      C1906   1.409       .  A
C1901      C1919   1.453       .  S
C1902      C1907   1.499       .  S
C1902      C1903   1.408       .  A
C1903      C1904   1.414       .  A
C1903      C1908   1.451       .  S
C1904      C1905   1.424       .  A
C1904      C1920   1.450       .  S
C1905      C1906   1.425       .  A
C1906      C1909   1.452       .  S
C1907      C1910   1.408       .  A
C1907      C1914   1.405       .  A
C1908      N1925   1.157       .  T
C1909      N1927   1.158       .  T
C1910      C1911   1.414       .  A
C1910      C1915   1.452       .  S
C1911      C1912   1.427       .  A
C1911      C1917   1.451       .  S
C1912      C1913   1.427       .  A
C1913      C1914   1.410       .  A
C1913      C1916   1.447       .  S
C1914      C1918   1.453       .  S
C1915      N1922   1.157       .  T
C1916      N1923   1.156       .  T
C1917      N1921   1.158       .  T
C1918      N1924   1.157       .  T
C1919      N1928   1.157       .  T
C1920      N1926   1.157       .  T
C1929      C1930   1.409       .  A
C1929      C1934   1.412       .  A
C1929      C1947   1.450       .  S
C1930      C1935   1.497       .  S
C1930      C1931   1.411       .  A
C1931      C1932   1.410       .  A
C1931      C1936   1.453       .  S
C1932      C1933   1.420       .  A
C1932      C1948   1.452       .  S
C1933      C1934   1.420       .  A
C1934      C1937   1.451       .  S
C1935      C1938   1.414       .  A
C1935      C1942   1.410       .  A
C1936      N1953   1.158       .  T
C1937      N1955   1.158       .  T
C1938      C1939   1.414       .  A
C1938      C1943   1.447       .  S
C1939      C1940   1.408       .  A
C1939      C1945   1.446       .  S
C1940      C1941   1.400       .  A
C1941      C1942   1.403       .  A
C1941      C1944   1.438       .  S
C1942      C1946   1.451       .  S
C1943      N1950   1.156       .  T
C1944      N1951   1.156       .  T
C1945      N1949   1.157       .  T
C1946      N1952   1.157       .  T
C1947      N1956   1.157       .  T
C1948      N1954   1.157       .  T
C1957      C1958   1.411       .  A
C1957      C1962   1.409       .  A
C1957      C1975   1.451       .  S
C1958      C1963   1.496       .  S
C1958      C1959   1.410       .  A
C1959      C1960   1.411       .  A
C1959      C1964   1.450       .  S
C1960      C1961   1.416       .  A
C1960      C1976   1.451       .  S
C1961      C1962   1.414       .  A
C1962      C1965   1.451       .  S
C1963      C1966   1.410       .  A
C1963      C1970   1.409       .  A
C1964      N1981   1.157       .  T
C1965      N1983   1.157       .  T
C1966      C1967   1.413       .  A
C1966      C1971   1.450       .  S
C1967      C1968   1.414       .  A
C1967      C1973   1.446       .  S
C1968      C1969   1.414       .  A
C1969      C1970   1.408       .  A
C1969      C1972   1.447       .  S
C1970      C1974   1.453       .  S
C1971      N1978   1.157       .  T
C1972      N1979   1.155       .  T
C1973      N1977   1.156       .  T
C1974      N1980   1.157       .  T
C1975      N1984   1.157       .  T
C1976      N1982   1.157       .  T
C1985      C1986   1.412       .  A
C1985      C1990   1.410   1_554  A
C1985      C2003   1.451       .  S
C1986      C1991   1.495       .  S
C1986      C1987   1.411       .  A
C1987      C1988   1.409   1_554  A
C1987      C1992   1.451       .  S
C1988      C1989   1.412       .  A
C1988      C2004   1.451       .  S
C1989      C1990   1.411       .  A
C1990      C1993   1.449       .  S
C1991      C1994   1.410       .  A
C1991      C1998   1.410       .  A
C1992      N2009   1.157       .  T
C1993      N2011   1.157       .  T
C1994      C1995   1.410       .  A
C1994      C1999   1.452       .  S
C1995      C1996   1.418       .  A
C1995      C2001   1.451       .  S
C1996      C1997   1.417       .  A
C1997      C1998   1.409       .  A
C1997      C2000   1.452       .  S
C1998      C2002   1.451       .  S
C1999      N2006   1.157       .  T
C2000      N2007   1.157       .  T
C2001      N2005   1.158       .  T
C2002      N2008   1.157       .  T
C2003      N2012   1.157       .  T
C2004      N2010   1.157       .  T
