geometry optimzed in LAMMPS
_audit_creation_date              2020-11-30 
_audit_creation_method            'lammps2cif' 
_symmetry_space_group_name_H-M    'P1' 
_symmetry_Int_Tables_number       1 
_symmetry_cell_setting            triclinic 
loop_ 
_symmetry_equiv_pos_as_xyz 
  x,y,z 
_cell_length_a                    37.85718837 
_cell_length_b                    37.838453580312645 
_cell_length_c                    33.72694420702681 
_cell_angle_alpha                 90.5010206682533 
_cell_angle_beta                  90.21326208332157 
_cell_angle_gamma                 119.95075721942088 
loop_ 
_atom_site_label 
_atom_site_type_symbol 
_atom_site_fract_x 
_atom_site_fract_y 
_atom_site_fract_z 
_atom_site_charge 
C1          C  0.23325264  0.19394431  0.15131159     0.79200
N2          N  0.23488567  0.19380499  0.11085559    -0.79100
C3          C  0.26463318  0.22695342  0.09157412     0.81700
N4          N  0.29176606  0.26021630  0.11302386    -0.79000
C5          C  0.29050123  0.26058678  0.15330248     0.81800
N6          N  0.26132677  0.22711161  0.17206272    -0.80700
C7          C  0.24189385  0.19736431  0.48457590     0.79200
N8          N  0.24014547  0.19549227  0.02494678    -0.79100
C9          C  0.26705198  0.22791978  0.04761944     0.81700
N10         N  0.29529761  0.26279071  0.02953006    -0.79000
C11         C  0.29755833  0.26483283  0.48930681     0.81800
N12         N  0.27090779  0.23194682  0.46732970    -0.80700
C13         C  0.26071930  0.50611604  0.15613975     0.79200
N14         N  0.26154816  0.50654996  0.11580271    -0.79100
C15         C  0.22898846  0.50263241  0.09470712     0.81700
N16         N  0.19502305  0.49677728  0.11430681    -0.79000
C17         C  0.19399679  0.49641366  0.15468515     0.81800
N18         N  0.22731655  0.50180811  0.17510240    -0.80700
C19         C  0.26328843  0.50804957  0.49034521     0.79200
N20         N  0.26316897  0.50817782  0.03076902    -0.79100
C21         C  0.22973870  0.50319361  0.05080539     0.81700
N22         N  0.19630811  0.49746784  0.03008981    -0.79000
C23         C  0.19619439  0.49753168  0.48978878     0.81800
N24         N  0.22991641  0.50309272  0.47030114    -0.80700
C25         C  0.45069879  0.21925806  0.15409276     0.79200
N26         N  0.45565296  0.19027489  0.17269492    -0.79100
C27         C  0.46028868  0.16193182  0.15188552     0.81700
N28         N  0.45992984  0.16283535  0.11160080    -0.79000
C29         C  0.45445724  0.19127303  0.09229300     0.81800
N30         N  0.45000059  0.21956270  0.11368035    -0.80700
C31         C  0.45291154  0.22160807  0.48767074     0.79200
N32         N  0.45922612  0.19385670  0.46799312    -0.79100
C33         C  0.46446294  0.16581536  0.48799495     0.81700
N34         N  0.46280559  0.16537461  0.02821967    -0.79000
C35         C  0.45559885  0.19238944  0.04843393     0.81800
N36         N  0.45130651  0.22099717  0.02801326    -0.80700
O37         O  0.40593181  0.02593366  0.27830118    -0.89200
C38         C  0.11398266  0.08387346  0.37586155     1.10900
O39         O  0.44460153  0.48132912  0.32177678    -1.37000
O40         O  0.08566070  0.09027820  0.27149759    -0.90600
O41         O  0.36293631  0.45885479  0.27814712    -0.91300
O42         O  0.43521680  0.43204752  0.23874805    -0.80100
O43         O  0.49491272  0.05894544  0.28309758    -1.02200
C44         C  0.05079384  0.46212267  0.24827153     1.20900
O45         O  0.47598079  0.42815131  0.32170836    -1.37100
Mn46       Mn  0.48440308  0.47517815  0.36419924     1.82100
O47         O  0.02080149  0.46561421  0.23759578    -0.79200
O48         O  0.11123865  0.04864406  0.27425503    -0.88600
C49         C  0.05432615  0.46582188  0.39357321     1.12000
C50         C  0.10996850  0.07850412  0.25869848     1.06700
O51         O  0.43963169  0.43662707  0.40548077    -0.80100
O52         O  0.02910296  0.01266091  0.32028481    -1.33800
O53         O  0.39793252  0.40202495  0.35988496    -0.99400
C54         C  0.46119367  0.34420567  0.26415878     1.05400
Mn55       Mn  0.08226514  0.00636604  0.32009351     1.48600
O56         O  0.42964658  0.34400765  0.27758385    -0.88600
Mn57       Mn  0.38295958  0.43322968  0.32301990     1.49600
O58         O  0.40901719  0.02857434  0.36794966    -0.92400
C59         C  0.49037222  0.05108362  0.24768900     1.18600
C60         C  0.37783875  0.49751466  0.38199669     1.10700
Mn61       Mn  0.48200719  0.47282714  0.27818581     1.81000
O62         O  0.05731000  0.46177473  0.35808501    -0.97600
Mn63       Mn  0.45110219  0.04091488  0.32176531     1.49300
C64         C  0.37436820  0.49447239  0.26483251     1.07200
Mn65       Mn  0.02429734  0.41485996  0.32180379     1.49900
C66         C  0.46248081  0.34644253  0.38118126     1.10100
O67         O  0.39569675  0.40010170  0.28558385    -1.03400
O68         O  0.11338652  0.05158594  0.36389123    -0.93000
C69         C  0.40177153  0.40285109  0.24997196     1.21400
O70         O  0.05523095  0.45970875  0.28380205    -1.03800
O71         O  0.08980185  0.09510337  0.36196338    -0.91200
O72         O  0.99819079  0.37039920  0.36774250    -0.90800
O73         O  0.36574955  0.46146045  0.36860610    -0.90800
Mn74       Mn  0.04246232  0.07423494  0.31855202     1.47900
O75         O  0.02486259  0.46997848  0.40439416    -0.79300
C76         C  0.40585119  0.40659666  0.39528407     1.14500
O77         O  0.48656487  0.01736714  0.23711450    -0.78000
O78         O  0.49229942  0.02229080  0.40378460    -0.77600
Mn79       Mn  0.41655085  0.37506943  0.32245067     1.51100
O80         O  0.99699424  0.36864904  0.27739069    -0.90000
O81         O  0.49842936  0.06214630  0.35742263    -0.97500
O82         O  0.43117404  0.34612264  0.36710637    -0.92500
C83         C  0.49642102  0.05584994  0.39297653     1.12200
C84         C  0.00475743  0.15374210  0.43613064    -0.02800
C85         C  0.47500692  0.13809044  0.46607215     0.06900
C86         C  0.45645767  0.09631377  0.47533723    -0.02900
C87         C  0.46752545  0.07063038  0.45492003    -0.02900
C88         C  0.49272340  0.08488120  0.42106769     0.07000
C89         C  0.01210239  0.12717915  0.41262628    -0.03100
Br90       Br  0.05248572  0.15076368  0.37174981    -0.01700
Br91       Br  0.03793616  0.21211395  0.42881541    -0.01800
Br92       Br  0.44939274  0.01702296  0.47561769    -0.01700
Br93       Br  0.41314436  0.07293149  0.51361362    -0.01700
C94         C  0.98822326  0.32460573  0.44109470    -0.02800
C95         C  0.45669289  0.31617542  0.41330476     0.06900
C96         C  0.42037471  0.27740867  0.41573962    -0.02900
C97         C  0.41900875  0.24686762  0.44074817    -0.02900
C98         C  0.45251335  0.25474372  0.46487718     0.07000
C99         C  0.98698857  0.29380965  0.46521664    -0.03100
Br100      Br  0.03390233  0.30431642  0.49701287    -0.01700
Br101      Br  0.02965306  0.37922377  0.45250578    -0.01800
Br102      Br  0.37179379  0.19325670  0.44166680    -0.01700
Br103      Br  0.37111132  0.26512225  0.38721727    -0.01700
C104        C  0.99947116  0.14867310  0.20401480    -0.02800
C105        C  0.46987755  0.13330564  0.17346906     0.06900
C106        C  0.45031526  0.09115214  0.16415168    -0.02900
C107        C  0.45961863  0.06482460  0.18584659    -0.02900
C108        C  0.48552560  0.07946213  0.21979135     0.07000
C109        C  0.00575555  0.12204034  0.22809982    -0.03100
Br110      Br  0.04596586  0.14605652  0.26988563    -0.01700
Br111      Br  0.03470906  0.20705506  0.21074322    -0.01800
Br112      Br  0.43719042  0.00922252  0.16762784    -0.01700
Br113      Br  0.40897802  0.06860266  0.12311203    -0.01700
C114        C  0.97673291  0.29353188  0.17136692    -0.02800
C115        C  0.44945339  0.25185555  0.17847737     0.06900
C116        C  0.42405330  0.24122286  0.21197440    -0.02900
C117        C  0.42761956  0.27124725  0.23940497    -0.02900
C118        C  0.45572781  0.31295325  0.23319772     0.07000
C119        C  0.97951250  0.32371774  0.19831220    -0.03100
Br120      Br  0.01552692  0.37971046  0.18605723    -0.01700
Br121      Br  0.01229657  0.30979845  0.12592873    -0.01800
Br122      Br  0.39611000  0.25408448  0.28731523    -0.03700
Br123      Br  0.38321321  0.18522103  0.22003977    -0.01700
C124        C  0.34568638  0.53709519  0.41218918    -0.02800
C125        C  0.35344172  0.50401139  0.41401351     0.06900
C126        C  0.33591412  0.47646625  0.44589949    -0.02900
C127        C  0.30821498  0.47901951  0.47216392    -0.02900
C128        C  0.29765985  0.50950959  0.46747597     0.07000
C129        C  0.31735500  0.53911915  0.43808816    -0.03100
Br130      Br  0.30514294  0.58270433  0.43346728    -0.01700
Br131      Br  0.37299308  0.58029285  0.37450536    -0.01800
Br132      Br  0.28311644  0.43916641  0.01348218    -0.01700
Br133      Br  0.35188072  0.43705773  0.45701890    -0.01700
C134        C  0.14519666  0.45909450  0.43563755    -0.02800
C135        C  0.15858623  0.48799532  0.46693512     0.06900
C136        C  0.13520142  0.50644727  0.47665239    -0.02900
C137        C  0.09855992  0.49549117  0.45589658    -0.02900
C138        C  0.08781207  0.47051630  0.42132116     0.07000
C139        C  0.11135828  0.45179410  0.41203855    -0.03100
Br140      Br  0.09479176  0.41123677  0.37047896    -0.01700
Br141      Br  0.17119290  0.42672341  0.42652570    -0.01800
Br142      Br  0.06263674  0.51293348  0.47741035    -0.01700
Br143      Br  0.15506132  0.54968912  0.01599175    -0.01700
C144        C  0.32832162  0.47022599  0.20331479    -0.02800
C145        C  0.34919615  0.50017539  0.23332448     0.06900
C146        C  0.34442376  0.53518737  0.23352834    -0.02900
C147        C  0.31621691  0.53732251  0.20753809    -0.02900
C148        C  0.29371504  0.50595248  0.17985748     0.07000
C149        C  0.30014423  0.47254283  0.17755942    -0.03100
Br150      Br  0.26781921  0.42806041  0.14106239    -0.01700
Br151      Br  0.34090452  0.42812034  0.19324596    -0.01800
Br152      Br  0.30711264  0.58285493  0.21026614    -0.01700
Br153      Br  0.37575879  0.58115593  0.26863842    -0.01700
C154        C  0.13021471  0.50160969  0.16524942    -0.02800
C155        C  0.15567903  0.48587452  0.17660394     0.06900
C156        C  0.14368148  0.45864617  0.20883268    -0.02900
C157        C  0.10827388  0.44918775  0.23031869    -0.02900
C158        C  0.08375973  0.46648337  0.22038534     0.07000
C159        C  0.09357721  0.49040995  0.18573369    -0.03100
Br160      Br  0.05642946  0.50637470  0.16417324    -0.01700
Br161      Br  0.14701766  0.54186264  0.12417258    -0.01800
Br162      Br  0.09138005  0.90819020  0.27050233    -0.01700
Br163      Br  0.17457841  0.93246135  0.22395970    -0.01700
C164        C  0.30935090  0.31661127  0.43751703    -0.02800
C165        C  0.32510821  0.30394429  0.46884840     0.06900
C166        C  0.36660223  0.32869743  0.47975117    -0.02900
C167        C  0.39249453  0.36419403  0.45802580    -0.02900
C168        C  0.37774508  0.37414840  0.42360225     0.07000
C169        C  0.33537938  0.35081000  0.41486142    -0.03100
Br170      Br  0.31069187  0.36789814  0.37505101    -0.01700
Br171      Br  0.25111475  0.28894398  0.42677697    -0.01800
Br172      Br  0.44771976  0.39883689  0.47668645    -0.01700
Br173      Br  0.38902844  0.31320817  0.02306052    -0.01700
C174        C  0.16788802  0.15376304  0.46595338    -0.02800
C175        C  0.20896077  0.16533242  0.45906825     0.06900
C176        C  0.21843209  0.14992746  0.42489179    -0.02900
C177        C  0.18742549  0.12292587  0.39850821    -0.02900
C178        C  0.14614346  0.11076028  0.40558119     0.07000
C179        C  0.13681831  0.12612482  0.43996349    -0.03100
Br180      Br  0.08168089  0.10886643  0.45337262    -0.01700
Br181      Br  0.15404103  0.17915586  0.00857421    -0.01800
Br182      Br  0.20255307  0.10519513  0.35100736    -0.01700
Br183      Br  0.27412532  0.16663277  0.41284168    -0.01700
C184        C  0.30366908  0.31115462  0.20838544    -0.02800
C185        C  0.31870883  0.29805315  0.17666029     0.06900
C186        C  0.36032067  0.32191028  0.16680045    -0.02900
C187        C  0.38578569  0.35901572  0.18709045    -0.02900
C188        C  0.37245803  0.36899647  0.22248986     0.07000
C189        C  0.33060533  0.34463314  0.23245146    -0.03100
Br190      Br  0.30755814  0.35951086  0.27576280    -0.01700
Br191      Br  0.24548019  0.28570958  0.21729118    -0.01800
Br192      Br  0.43670520  0.39705497  0.16299208    -0.01700
Br193      Br  0.38416911  0.30222913  0.12835710    -0.01700
C194        C  0.17933946  0.10668518  0.22429371    -0.02800
C195        C  0.13956474  0.10190405  0.22564220     0.06900
C196        C  0.12960065  0.12203347  0.19604758    -0.02900
C197        C  0.15971729  0.15110120  0.17090328    -0.02900
C198        C  0.20019770  0.15937112  0.17348644     0.07000
C199        C  0.20965509  0.13654551  0.19976331    -0.03100
Br200      Br  0.26503455  0.14742177  0.20267896    -0.01700
Br201      Br  0.19309279  0.07119350  0.25290728    -0.01800
Br202      Br  0.14600605  0.18184208  0.13473216    -0.01700
Br203      Br  0.07405761  0.10574741  0.18472592    -0.01700
C204        C  0.23315367  0.19397199  0.65131107     0.79200
N205        N  0.23482916  0.19381219  0.61086176    -0.79100
C206        C  0.26462349  0.22692945  0.59158988     0.81700
N207        N  0.29176863  0.26018591  0.61304033    -0.79000
C208        C  0.29046696  0.26057773  0.65331668     0.81800
N209        N  0.26123990  0.22712821  0.67207259    -0.80700
C210        C  0.24183573  0.19746377  0.98454076     0.79200
N211        N  0.24017807  0.19542373  0.52498098    -0.79100
C212        C  0.26708217  0.22786132  0.54764290     0.81700
N213        N  0.29534391  0.26271392  0.52954496    -0.79000
C214        C  0.29749010  0.26494018  0.98929085     0.81800
N215        N  0.27083170  0.23206620  0.96730622    -0.80700
C216        C  0.26068018  0.50602583  0.65613802     0.79200
N217        N  0.26148865  0.50644755  0.61580115    -0.79100
C218        C  0.22893681  0.50257212  0.59472181     0.81700
N219        N  0.19499872  0.49676889  0.61433586    -0.79000
C220        C  0.19399278  0.49641894  0.65471354     0.81800
N221        N  0.22730743  0.50177642  0.67511606    -0.80700
C222        C  0.26338236  0.50814024  0.99033295     0.79200
N223        N  0.26308548  0.50809317  0.53077916    -0.79100
C224        C  0.22966805  0.50312681  0.55082275     0.81700
N225        N  0.19623469  0.49740896  0.53011676    -0.79000
C226        C  0.19628021  0.49760246  0.98976230     0.81800
N227        N  0.23001134  0.50317868  0.97028425    -0.80700
C228        C  0.45062901  0.21921816  0.65410565     0.79200
N229        N  0.45548232  0.19018212  0.67272203    -0.79100
C230        C  0.46010444  0.16182391  0.65192291     0.81700
N231        N  0.45978205  0.16274076  0.61163484    -0.79000
C232        C  0.45437093  0.19121490  0.59231952     0.81800
N233        N  0.44997305  0.21954331  0.61369749    -0.80700
C234        C  0.45301567  0.22162254  0.98761044     0.79200
N235        N  0.45934451  0.19386600  0.96796237    -0.79100
C236        C  0.46457113  0.16583463  0.98799326     0.81700
N237        N  0.46271092  0.16533543  0.52822402    -0.79000
C238        C  0.45551095  0.19234168  0.54846373     0.81800
N239        N  0.45121519  0.22096058  0.52807076    -0.80700
O240        O  0.40586828  0.02581575  0.77826158    -0.89200
C241        C  0.11396432  0.08388288  0.87581812     1.10900
O242        O  0.44466304  0.48137563  0.82175918    -1.37000
O243        O  0.08557683  0.09025912  0.77149504    -0.90600
O244        O  0.36300219  0.45888354  0.77811781    -0.91300
O245        O  0.43526928  0.43205060  0.73874303    -0.80100
O246        O  0.49484124  0.05884301  0.78307464    -1.02200
C247        C  0.05079797  0.46216625  0.74827847     1.20900
O248        O  0.47603793  0.42819218  0.82171690    -1.37100
Mn249      Mn  0.48445958  0.47523504  0.86419356     1.82100
O250        O  0.02080707  0.46565888  0.73760366    -0.79200
O251        O  0.11117277  0.04863734  0.77421378    -0.88600
C252        C  0.05438090  0.46589369  0.89357432     1.12000
C253        C  0.10989054  0.07850007  0.75867791     1.06700
O254        O  0.43968622  0.43670124  0.90548497    -0.80100
O255        O  0.02905220  0.01263169  0.82027095    -1.33800
O256        O  0.39799223  0.40208788  0.85989089    -0.99400
C257        C  0.46123785  0.34423012  0.76415716     1.05400
Mn258      Mn  0.08222778  0.00635540  0.82005484     1.48600
O259        O  0.42970499  0.34404118  0.77761217    -0.88600
Mn260      Mn  0.38302413  0.43327909  0.82300875     1.49600
O261        O  0.40894890  0.02847074  0.86791187    -0.92400
C262        C  0.49029854  0.05100002  0.74766449     1.18600
C263        C  0.37791672  0.49759424  0.88196423     1.10700
Mn264      Mn  0.48206417  0.47285281  0.77817882     1.81000
O265        O  0.05734490  0.46183426  0.85808443    -0.97600
Mn266      Mn  0.45103839  0.04082526  0.82173318     1.49300
C267        C  0.37443036  0.49449412  0.76478690     1.07200
Mn268      Mn  0.02431961  0.41491054  0.82180381     1.49900
C269        C  0.46254609  0.34647626  0.88116778     1.10100
O270        O  0.39575920  0.40013052  0.78559208    -1.03400
O271        O  0.11339351  0.05160554  0.86384333    -0.93000
C272        C  0.40183083  0.40284973  0.74997981     1.21400
O273        O  0.05523903  0.45976130  0.78380815    -1.03800
O274        O  0.08974603  0.09507384  0.86194146    -0.91200
O275        O  0.99822686  0.37043041  0.86772664    -0.90800
O276        O  0.36582748  0.46153736  0.86858375    -0.90800
Mn277      Mn  0.04238812  0.07419508  0.81855259     1.47900
O278        O  0.02491955  0.47005008  0.90440859    -0.79300
C279        C  0.40590078  0.40667591  0.89529117     1.14500
O280        O  0.48652831  0.01730590  0.73706950    -0.78000
O281        O  0.49226389  0.02223501  0.90374497    -0.77600
Mn282      Mn  0.41661136  0.37511548  0.82247291     1.51100
O283        O  0.99699861  0.36869945  0.77738206    -0.90000
O284        O  0.49837489  0.06209510  0.85739356    -0.97500
O285        O  0.43123825  0.34618603  0.86713815    -0.92500
C286        C  0.49638152  0.05579564  0.89294601     1.12200
C287        C  0.00478398  0.15370022  0.93618426    -0.02800
C288        C  0.47510227  0.13808919  0.96609938     0.06900
C289        C  0.45647446  0.09629897  0.97532493    -0.02900
C290        C  0.46747999  0.07058251  0.95487820    -0.02900
C291        C  0.49272091  0.08483616  0.92105513     0.07000
C292        C  0.01212290  0.12713297  0.91268389    -0.03100
Br293      Br  0.05255851  0.15072110  0.87185809    -0.01700
Br294      Br  0.03802789  0.21207499  0.92893425    -0.01800
Br295      Br  0.44918255  0.01691039  0.97547868    -0.01700
Br296      Br  0.41315851  0.07296005  0.01360209    -0.01700
C297        C  0.98828529  0.32459063  0.94104679    -0.02800
C298        C  0.45676471  0.31618241  0.91324955     0.06900
C299        C  0.42051151  0.27735483  0.91555515    -0.02900
C300        C  0.41915941  0.24679945  0.94052908    -0.02900
C301        C  0.45260760  0.25473480  0.96478222     0.07000
C302        C  0.98703571  0.29378223  0.96516290    -0.03100
Br303      Br  0.03395827  0.30425310  0.99692614    -0.01700
Br304      Br  0.02978209  0.37919626  0.95241321    -0.01800
Br305      Br  0.37205687  0.19308404  0.94116639    -0.01700
Br306      Br  0.37131275  0.26499996  0.88688046    -0.01700
C307        C  0.99919712  0.14861683  0.70417744    -0.02800
C308        C  0.46968778  0.13319849  0.67352349     0.06900
C309        C  0.45020362  0.09105873  0.66414812    -0.02900
C310        C  0.45953231  0.06474006  0.68582875    -0.02900
C311        C  0.48540124  0.07936876  0.71980002     0.07000
C312        C  0.00551251  0.12197846  0.72822419    -0.03100
Br313      Br  0.04567776  0.14597786  0.77005302    -0.01700
Br314      Br  0.03430158  0.20699815  0.71108715    -0.01800
Br315      Br  0.43716753  0.00915435  0.66757253    -0.01700
Br316      Br  0.40892298  0.06850393  0.62305704    -0.01700
C317        C  0.97674371  0.29355630  0.67138876    -0.02800
C318        C  0.44946465  0.25186047  0.67846467     0.06900
C319        C  0.42380434  0.24127379  0.71174576    -0.02900
C320        C  0.42737261  0.27129389  0.73918392    -0.02900
C321        C  0.45574710  0.31297585  0.73316751     0.07000
C322        C  0.97953694  0.32374715  0.69833717    -0.03100
Br323      Br  0.01561436  0.37972859  0.68610345    -0.01700
Br324      Br  0.01239543  0.30979092  0.62601977    -0.01800
Br325      Br  0.39542863  0.25409914  0.78681860    -0.03700
Br326      Br  0.38262749  0.18533770  0.71947583    -0.01700
C327        C  0.34568449  0.53712254  0.91207810    -0.02800
C328        C  0.35352438  0.50410053  0.91397656     0.06900
C329        C  0.33608669  0.47662735  0.94592873    -0.02900
C330        C  0.30839645  0.47918756  0.97220227    -0.02900
C331        C  0.29776367  0.50961738  0.96745865     0.07000
C332        C  0.31736748  0.53915684  0.93798861    -0.03100
Br333      Br  0.30503995  0.58265252  0.93324977    -0.01700
Br334      Br  0.37283903  0.58020378  0.87425098    -0.01800
Br335      Br  0.28283229  0.43892861  0.51336949    -0.01700
Br336      Br  0.35215416  0.43730605  0.95710947    -0.01700
C337        C  0.14530554  0.45921597  0.93557436    -0.02800
C338        C  0.15868273  0.48808677  0.96689841     0.06900
C339        C  0.13530751  0.50654733  0.97662345    -0.02900
C340        C  0.09867577  0.49562136  0.95585913    -0.02900
C341        C  0.08789278  0.47061231  0.92130354     0.07000
C342        C  0.11144720  0.45190294  0.91200085    -0.03100
Br343      Br  0.09489084  0.41136769  0.87042228    -0.01700
Br344      Br  0.17136703  0.42691948  0.92636416    -0.01800
Br345      Br  0.06285267  0.51323113  0.97728988    -0.01700
Br346      Br  0.15494063  0.54960714  0.51599756    -0.01700
C347        C  0.32832347  0.47017412  0.70331065    -0.02800
C348        C  0.34924892  0.50017308  0.73326817     0.06900
C349        C  0.34449934  0.53519864  0.73342029    -0.02900
C350        C  0.31625477  0.53729436  0.70745187    -0.02900
C351        C  0.29368953  0.50587069  0.67984247     0.07000
C352        C  0.30009807  0.47244619  0.67758575    -0.03100
Br353      Br  0.26768516  0.42789060  0.64119367    -0.01700
Br354      Br  0.34092327  0.42807759  0.69324807    -0.01800
Br355      Br  0.30718217  0.58284723  0.71010998    -0.01700
Br356      Br  0.37593211  0.58125015  0.76840876    -0.01700
C357        C  0.13021959  0.50163491  0.66526857    -0.02800
C358        C  0.15568951  0.48591038  0.67664215     0.06900
C359        C  0.14368842  0.45868777  0.70887564    -0.02900
C360        C  0.10827199  0.44922413  0.73034431    -0.02900
C361        C  0.08375826  0.46651492  0.72039606     0.07000
C362        C  0.09357017  0.49042233  0.68573393    -0.03100
Br363      Br  0.05637857  0.50630215  0.66411388    -0.01700
Br364      Br  0.14702495  0.54189099  0.62419528    -0.01800
Br365      Br  0.09113609  0.90796089  0.77034462    -0.01700
Br366      Br  0.17422657  0.93203208  0.72367081    -0.01700
C367        C  0.30934508  0.31674390  0.93749304    -0.02800
C368        C  0.32506757  0.30405566  0.96884042     0.06900
C369        C  0.36655996  0.32879349  0.97976499    -0.02900
C370        C  0.39247997  0.36429022  0.95805263    -0.02900
C371        C  0.37776454  0.37425710  0.92361591     0.07000
C372        C  0.33539988  0.35095740  0.91486628    -0.03100
Br373      Br  0.31075351  0.36814127  0.87510287    -0.01700
Br374      Br  0.25112571  0.28907760  0.92666822    -0.01800
Br375      Br  0.44768529  0.39893939  0.97676564    -0.01700
Br376      Br  0.38909860  0.31313725  0.52304653    -0.01700
C377        C  0.16782632  0.15371466  0.96596182    -0.02800
C378        C  0.20892461  0.16541590  0.95901901     0.06900
C379        C  0.21843309  0.15013283  0.92477258    -0.02900
C380        C  0.18743740  0.12314625  0.89836397    -0.02900
C381        C  0.14612958  0.11081100  0.90552094     0.07000
C382        C  0.13677188  0.12605970  0.93996651    -0.03100
Br383      Br  0.08161304  0.10866232  0.95341980    -0.01700
Br384      Br  0.15417909  0.17937340  0.50846499    -0.01800
Br385      Br  0.20259278  0.10571266  0.85068920    -0.01700
Br386      Br  0.27415959  0.16695521  0.91269561    -0.01700
C387        C  0.30369343  0.31119640  0.70836548    -0.02800
C388        C  0.31871297  0.29803692  0.67667283     0.06900
C389        C  0.36034761  0.32181588  0.66685880    -0.02900
C390        C  0.38585821  0.35890564  0.68716402    -0.02900
C391        C  0.37252015  0.36895968  0.72251813     0.07000
C392        C  0.33065492  0.34463691  0.73245890    -0.03100
Br393      Br  0.30763474  0.35947718  0.77582201    -0.01700
Br394      Br  0.24550031  0.28590820  0.71716047    -0.01800
Br395      Br  0.43692472  0.39678193  0.66320239    -0.01700
Br396      Br  0.38414236  0.30205264  0.62843434    -0.01700
C397        C  0.17920775  0.10660511  0.72415980    -0.02800
C398        C  0.13947122  0.10191797  0.72561751     0.06900
C399        C  0.12952165  0.12214450  0.69611351    -0.02900
C400        C  0.15963627  0.15123708  0.67098889    -0.02900
C401        C  0.20008261  0.15939651  0.67346172     0.07000
C402        C  0.20949914  0.13642422  0.69957683    -0.03100
Br403      Br  0.26478545  0.14699826  0.70211309    -0.01700
Br404      Br  0.19295539  0.07108466  0.75273429    -0.01800
Br405      Br  0.14596413  0.18210458  0.63494603    -0.01700
Br406      Br  0.07399012  0.10596263  0.68486974    -0.01700
C407        C  0.23318267  0.69395749  0.15131479     0.79200
N408        N  0.23484543  0.69381664  0.11086553    -0.79100
C409        C  0.26460889  0.72695729  0.09159725     0.81700
N410        N  0.29173825  0.76021780  0.11305343    -0.79000
C411        C  0.29044838  0.76059040  0.15333221     0.81800
N412        N  0.26124971  0.72711857  0.17208196    -0.80700
C413        C  0.24183228  0.69736443  0.48452785     0.79200
N414        N  0.24014660  0.69545607  0.02498898    -0.79100
C415        C  0.26704959  0.72789710  0.04764942     0.81700
N416        N  0.29530536  0.76275272  0.02954978    -0.79000
C417        C  0.29749950  0.76483634  0.48925035     0.81800
N418        N  0.27083088  0.73195634  0.46727906    -0.80700
C419        C  0.26073593  0.00612454  0.15612522     0.79200
N420        N  0.26152063  0.00651796  0.11578808    -0.79100
C421        C  0.22895147  0.00261442  0.09471962     0.81700
N422        N  0.19501711  0.99680580  0.11434868    -0.79000
C423        C  0.19403610  0.99648203  0.15472974     0.81800
N424        N  0.22736997  0.00187273  0.17511637    -0.80700
C425        C  0.26335151  0.00820911  0.49036216     0.79200
N426        N  0.26309085  0.00812447  0.03077282    -0.79100
C427        C  0.22966957  0.00315028  0.05081705     0.81700
N428        N  0.19623030  0.99741723  0.03010963    -0.79000
C429        C  0.19625875  0.99770315  0.48980445     0.81800
N430        N  0.22998993  0.00328344  0.47031899    -0.80700
C431        C  0.45063069  0.71928988  0.15404702     0.79200
N432        N  0.45551444  0.69028077  0.17268677    -0.79100
C433        C  0.46016615  0.66192581  0.15191479     0.81700
N434        N  0.45986108  0.66282983  0.11162547    -0.79000
C435        C  0.45443286  0.69128127  0.09228508     0.81800
N436        N  0.44998545  0.71959289  0.11363839    -0.80700
C437        C  0.45280563  0.72148970  0.48759938     0.79200
N438        N  0.45914484  0.69374303  0.46794243    -0.79100
C439        C  0.46437743  0.66570980  0.48796641     0.81700
N440        N  0.46281133  0.66538822  0.02821521    -0.79000
C441        C  0.45559102  0.69239382  0.04842916     0.81800
N442        N  0.45128253  0.72099185  0.02801010    -0.80700
O443        O  0.40587957  0.52585859  0.27830387    -0.89200
C444        C  0.11395597  0.58389059  0.37579339     1.10900
O445        O  0.44462929  0.98137491  0.32179645    -1.37000
O446        O  0.08558507  0.59025140  0.27145574    -0.90600
O447        O  0.36298199  0.95892976  0.27815656    -0.91300
O448        O  0.43522738  0.93206396  0.23876821    -0.80100
O449        O  0.49483742  0.55886669  0.28308484    -1.02200
C450        C  0.05080976  0.96215049  0.24830426     1.20900
O451        O  0.47598458  0.92817040  0.32173925    -1.37100
Mn452      Mn  0.48441453  0.97520616  0.36422862     1.82100
O453        O  0.02082173  0.96564347  0.23762034    -0.79200
O454        O  0.11119248  0.54864112  0.27420266    -0.88600
C455        C  0.05431886  0.96581927  0.39360756     1.12000
C456        C  0.10990108  0.57849119  0.25864958     1.06700
O457        O  0.43963368  0.93666672  0.40551071    -0.80100
O458        O  0.02908043  0.51263991  0.32025361    -1.33800
O459        O  0.39793447  0.90207257  0.35991201    -0.99400
C460        C  0.46116806  0.84421819  0.26415670     1.05400
Mn461      Mn  0.08225781  0.50637073  0.32004914     1.48600
O462        O  0.42963381  0.84402300  0.27761792    -0.88600
Mn463      Mn  0.38298350  0.93328865  0.32303681     1.49600
O464        O  0.40898123  0.52850398  0.36794695    -0.92400
C465        C  0.49028726  0.55103127  0.24767381     1.18600
C466        C  0.37786560  0.99758773  0.38199544     1.10700
Mn467      Mn  0.48202668  0.97285129  0.27821410     1.81000
O468        O  0.05730484  0.96175990  0.35811982    -0.97600
Mn469      Mn  0.45105273  0.54085490  0.32175878     1.49300
C470        C  0.37441734  0.99454647  0.26483126     1.07200
Mn471      Mn  0.02428908  0.91485950  0.32181283     1.49900
C472        C  0.46246668  0.84642133  0.38116983     1.10100
O473        O  0.39571808  0.90014486  0.28561520    -1.03400
O474        O  0.11339731  0.55161916  0.36382644    -0.93000
C475        C  0.40178445  0.90286716  0.25000295     1.21400
O476        O  0.05522765  0.95972511  0.28383503    -1.03800
O477        O  0.08975242  0.59508968  0.36190286    -0.91200
O478        O  0.99817657  0.87036334  0.36771750    -0.90800
O479        O  0.36577638  0.96153235  0.36861213    -0.90800
Mn480      Mn  0.04240531  0.57419968  0.31851740     1.47900
O481        O  0.02485700  0.96998308  0.40442182    -0.79300
C482        C  0.40584577  0.90664806  0.39531281     1.14500
O483        O  0.48651116  0.51733381  0.23707511    -0.78000
O484        O  0.49228951  0.52225356  0.40375268    -0.77600
Mn485      Mn  0.41655064  0.87510143  0.32248594     1.51100
O486        O  0.99698286  0.86866929  0.27736915    -0.90000
O487        O  0.49839333  0.56212171  0.35740839    -0.97500
O488        O  0.43116688  0.84614984  0.36714142    -0.92500
C489        C  0.49640386  0.55581296  0.39296000     1.12200
C490        C  0.00478731  0.65368615  0.43620228    -0.02800
C491        C  0.47496310  0.63800258  0.46607677     0.06900
C492        C  0.45639623  0.59621839  0.47531590    -0.02900
C493        C  0.46746602  0.57054250  0.45488940    -0.02900
C494        C  0.49271938  0.58482766  0.42107823     0.07000
C495        C  0.01216856  0.62714355  0.41270803    -0.03100
Br496      Br  0.05267750  0.65076852  0.37195300    -0.01700
Br497      Br  0.03800307  0.71206745  0.42897605    -0.01800
Br498      Br  0.44924723  0.51688721  0.47550659    -0.01700
Br499      Br  0.41307662  0.57282254  0.51358314    -0.01700
C500        C  0.98815104  0.82453608  0.44109212    -0.02800
C501        C  0.45666522  0.81611170  0.41324863     0.06900
C502        C  0.42037845  0.77730983  0.41557270    -0.02900
C503        C  0.41898976  0.74674114  0.44055302    -0.02900
C504        C  0.45243059  0.75463169  0.46479071     0.07000
C505        C  0.98688099  0.79372321  0.46521885    -0.03100
Br506      Br  0.03372177  0.80423848  0.49714081    -0.01700
Br507      Br  0.02958887  0.87915672  0.45251396    -0.01800
Br508      Br  0.37182856  0.69307778  0.44127007    -0.01700
Br509      Br  0.37118355  0.76500511  0.38691509    -0.01700
C510        C  0.99919855  0.64861906  0.20420543    -0.02800
C511        C  0.46971597  0.63328582  0.17354547     0.06900
C512        C  0.45024580  0.59115059  0.16414711    -0.02900
C513        C  0.45956899  0.56482097  0.18581843    -0.02900
C514        C  0.48539785  0.57942016  0.21981899     0.07000
C515        C  0.00550476  0.62196953  0.22824479    -0.03100
Br516      Br  0.04560206  0.64594825  0.27013623    -0.01700
Br517      Br  0.03426228  0.70699760  0.21119087    -0.01800
Br518      Br  0.43728589  0.50927287  0.16748389    -0.01700
Br519      Br  0.40897737  0.56861075  0.12304299    -0.01700
C520        C  0.97676965  0.79357128  0.17136726    -0.02800
C521        C  0.44938265  0.75190343  0.17839216     0.06900
C522        C  0.42385312  0.74127366  0.21178105    -0.02900
C523        C  0.42743446  0.77127908  0.23924454    -0.02900
C524        C  0.45567632  0.81297890  0.23315502     0.07000
C525        C  0.97955366  0.82374975  0.19832597    -0.03100
Br526      Br  0.01566725  0.87973693  0.18613600    -0.01700
Br527      Br  0.01242497  0.80982403  0.12599955    -0.01800
Br528      Br  0.39573488  0.75406178  0.28702578    -0.03700
Br529      Br  0.38279328  0.68530077  0.21960262    -0.01700
C530        C  0.34563654  0.03712801  0.41209840    -0.02800
C531        C  0.35345517  0.00409097  0.41399438     0.06900
C532        C  0.33597932  0.97659968  0.44592874    -0.02900
C533        C  0.30827638  0.97916193  0.47218578    -0.02900
C534        C  0.29771594  0.00964937  0.46748309     0.07000
C535        C  0.31737159  0.03921328  0.43804610    -0.03100
Br536      Br  0.30520728  0.08283020  0.43342906    -0.01700
Br537      Br  0.37270307  0.08012842  0.37417837    -0.01800
Br538      Br  0.28305897  0.93912841  0.01354225    -0.01700
Br539      Br  0.35200524  0.93724260  0.45710317    -0.01700
C540        C  0.14525642  0.95921582  0.43567720    -0.02800
C541        C  0.15864234  0.98814091  0.46695220     0.06900
C542        C  0.13524042  0.00657807  0.47665946    -0.02900
C543        C  0.09860552  0.99561926  0.45588347    -0.02900
C544        C  0.08782255  0.97056235  0.42136071     0.07000
C545        C  0.11137534  0.95184070  0.41210929    -0.03100
Br546      Br  0.09479716  0.91122360  0.37060892    -0.01700
Br547      Br  0.17133360  0.92692181  0.42654540    -0.01800
Br548      Br  0.06278234  0.01326632  0.47724237    -0.01700
Br549      Br  0.15493362  0.04959949  0.01599811    -0.01700
C550        C  0.32828886  0.97021486  0.20337078    -0.02800
C551        C  0.34924860  0.00023726  0.23330096     0.06900
C552        C  0.34456034  0.03530247  0.23339625    -0.02900
C553        C  0.31634942  0.03742098  0.20739340    -0.02900
C554        C  0.29374825  0.00597140  0.17982118     0.07000
C555        C  0.30009627  0.97250832  0.17761885    -0.03100
Br556      Br  0.26765084  0.92793789  0.14125253    -0.01700
Br557      Br  0.34078208  0.92803401  0.19338623    -0.01800
Br558      Br  0.30737142  0.08304302  0.20993011    -0.01700
Br559      Br  0.37602245  0.08137202  0.26835339    -0.01700
C560        C  0.13023582  0.00164287  0.16529346    -0.02800
C561        C  0.15574287  0.98596898  0.17668359     0.06900
C562        C  0.14378515  0.95878979  0.20895345    -0.02900
C563        C  0.10836496  0.94930976  0.23042649    -0.02900
C564        C  0.08379373  0.96652535  0.22043595     0.07000
C565        C  0.09356802  0.99038441  0.18574220    -0.03100
Br566      Br  0.05628321  0.00609205  0.16402611    -0.01700
Br567      Br  0.14702163  0.04190697  0.12422915    -0.01800
Br568      Br  0.09124540  0.40802156  0.27034996    -0.01700
Br569      Br  0.17440835  0.43222431  0.22375301    -0.01700
C570        C  0.30932385  0.81663718  0.43746257    -0.02800
C571        C  0.32506161  0.80394992  0.46879676     0.06900
C572        C  0.36654782  0.82870593  0.47973323    -0.02900
C573        C  0.39245042  0.86422805  0.45804636    -0.02900
C574        C  0.37772089  0.87421099  0.42362926     0.07000
C575        C  0.33535968  0.85088933  0.41487271    -0.03100
Br576      Br  0.31068804  0.86809003  0.37515476    -0.01700
Br577      Br  0.25110771  0.78891146  0.42660089    -0.01800
Br578      Br  0.44765192  0.89888452  0.47676749    -0.01700
Br579      Br  0.38901987  0.81331192  0.02317978    -0.01700
C580        C  0.16779771  0.65354573  0.46603112    -0.02800
C581        C  0.20890634  0.66531598  0.45902078     0.06900
C582        C  0.21840836  0.65012150  0.42470579    -0.02900
C583        C  0.18741573  0.62321816  0.39826066    -0.02900
C584        C  0.14610984  0.61080747  0.40548965     0.07000
C585        C  0.13674101  0.62593408  0.44001184    -0.03100
Br586      Br  0.08157008  0.60845765  0.45349745    -0.01700
Br587      Br  0.15412842  0.67937593  0.00843119    -0.01800
Br588      Br  0.20256150  0.60604119  0.35041390    -0.01700
Br589      Br  0.27411332  0.66690566  0.41260000    -0.01700
C590        C  0.30365670  0.81116148  0.20842984    -0.02800
C591        C  0.31867655  0.79804727  0.17669998     0.06900
C592        C  0.36029652  0.82187320  0.16685693    -0.02900
C593        C  0.38578098  0.85897736  0.18714618    -0.02900
C594        C  0.37246483  0.86898049  0.22254179     0.07000
C595        C  0.33061462  0.84460814  0.23252033    -0.03100
Br596      Br  0.30759749  0.85939841  0.27592123    -0.01700
Br597      Br  0.24546765  0.78579452  0.21729401    -0.01800
Br598      Br  0.43673400  0.89696419  0.16307251    -0.01700
Br599      Br  0.38412321  0.80214270  0.12844094    -0.01700
C600        C  0.17921910  0.60658683  0.22415357    -0.02800
C601        C  0.13948104  0.60189600  0.22558736     0.06900
C602        C  0.12953995  0.62211666  0.19606831    -0.02900
C603        C  0.15965794  0.65117880  0.17092515    -0.02900
C604        C  0.20011338  0.65937514  0.17345512     0.07000
C605        C  0.20953288  0.63644144  0.19961866    -0.03100
Br606      Br  0.26485390  0.64713505  0.20231815    -0.01700
Br607      Br  0.19293203  0.57100673  0.25266818    -0.01800
Br608      Br  0.14598213  0.68196808  0.13478051    -0.01700
Br609      Br  0.07401909  0.60600876  0.18486460    -0.01700
C610        C  0.23319642  0.69393039  0.65125036     0.79200
N611        N  0.23485698  0.69378143  0.61080207    -0.79100
C612        C  0.26464668  0.72690201  0.59153221     0.81700
N613        N  0.29179975  0.76015330  0.61298270    -0.79000
C614        C  0.29051266  0.76053307  0.65325958     0.81800
N615        N  0.26129226  0.72707779  0.67201272    -0.80700
C616        C  0.24186875  0.69739338  0.98458393     0.79200
N617        N  0.24015790  0.69541029  0.52493203    -0.79100
C618        C  0.26707300  0.72784535  0.54758783     0.81700
N619        N  0.29531607  0.76270535  0.52948804    -0.79000
C620        C  0.29752330  0.76486593  0.98931132     0.81800
N621        N  0.27088548  0.73197277  0.96733931    -0.80700
C622        C  0.26062137  0.00595656  0.65615339     0.79200
N623        N  0.26146238  0.00643666  0.61581954    -0.79100
C624        C  0.22893192  0.00260213  0.59473558     0.81700
N625        N  0.19498059  0.99677691  0.61434152    -0.79000
C626        C  0.19394265  0.99636235  0.65471887     0.81800
N627        N  0.22723872  0.00168282  0.67512935    -0.80700
C628        C  0.26329278  0.00807147  0.99033850     0.79200
N629        N  0.26312672  0.00820622  0.53079745    -0.79100
C630        C  0.22970023  0.00322525  0.55083839     0.81700
N631        N  0.19627953  0.99753376  0.53012993    -0.79000
C632        C  0.19618919  0.99753407  0.98977992     0.81800
N633        N  0.22991588  0.00310354  0.97029566    -0.80700
C634        C  0.45055445  0.71916483  0.65404711     0.79200
N635        N  0.45544266  0.69015069  0.67266627    -0.79100
C636        C  0.46006291  0.66178884  0.65187178     0.81700
N637        N  0.45970587  0.66268243  0.61158479    -0.79000
C638        C  0.45426139  0.69113374  0.59226592     0.81800
N639        N  0.44986336  0.71946483  0.61363868    -0.80700
C640        C  0.45298934  0.72161933  0.98760960     0.79200
N641        N  0.45932584  0.69387086  0.96795984    -0.79100
C642        C  0.46457295  0.66585203  0.98798742     0.81700
N643        N  0.46260609  0.66523775  0.52819200    -0.79000
C644        C  0.45538768  0.69224028  0.54841103     0.81800
N645        N  0.45109036  0.72084885  0.52799977    -0.80700
O646        O  0.40593874  0.52588798  0.77825461    -0.89200
C647        C  0.11402168  0.58396863  0.87578227     1.10900
O648        O  0.44459159  0.98130306  0.82175465    -1.37000
O649        O  0.08561803  0.59031747  0.77144616    -0.90600
O650        O  0.36293303  0.95881204  0.77811082    -0.91300
O651        O  0.43522437  0.93201852  0.73872297    -0.80100
O652        O  0.49490365  0.55890475  0.78304697    -1.02200
C653        C  0.05074519  0.96211720  0.74827138     1.20900
O654        O  0.47596675  0.92812250  0.82169371    -1.37100
Mn655      Mn  0.48438437  0.97515299  0.86418475     1.82100
O656        O  0.02075930  0.96561939  0.73759749    -0.79200
O657        O  0.11119897  0.54868497  0.77418463    -0.88600
C658        C  0.05429458  0.96579293  0.89356614     1.12000
C659        C  0.10991632  0.57853920  0.75863135     1.06700
O660        O  0.43961066  0.93661505  0.90545847    -0.80100
O661        O  0.02911337  0.51270327  0.82026138    -1.33800
O662        O  0.39791538  0.90200318  0.85986436    -0.99400
C663        C  0.46115564  0.84417798  0.76409489     1.05400
Mn664      Mn  0.08228472  0.50642853  0.82004369     1.48600
O665        O  0.42962707  0.84399128  0.77755518    -0.88600
Mn666      Mn  0.38295030  0.93320084  0.82298906     1.49600
O667        O  0.40905315  0.52858078  0.86790421    -0.92400
C668        C  0.49035389  0.55104469  0.74764013     1.18600
C669        C  0.37779982  0.99747837  0.88195248     1.10700
Mn670      Mn  0.48200752  0.97280094  0.77817199     1.81000
O671        O  0.05727114  0.96174206  0.85807642    -0.97600
Mn672      Mn  0.45111685  0.54090563  0.82171700     1.49300
C673        C  0.37436224  0.99442397  0.76478623     1.07200
Mn674      Mn  0.02424218  0.91483249  0.82177602     1.49900
C675        C  0.46244384  0.84638581  0.88111845     1.10100
O676        O  0.39570455  0.90008135  0.78555955    -1.03400
O677        O  0.11344736  0.55168959  0.86381217    -0.93000
C678        C  0.40178562  0.90281265  0.74994897     1.21400
O679        O  0.05517987  0.95969995  0.78380012    -1.03800
O680        O  0.08981326  0.59516832  0.86189921    -0.91200
O681        O  0.99812858  0.87034084  0.86768638    -0.90800
O682        O  0.36571921  0.96142560  0.86856456    -0.90800
Mn683      Mn  0.04245096  0.57427091  0.81851807     1.47900
O684        O  0.02483065  0.96994645  0.90439558    -0.79300
C685        C  0.40582978  0.90658802  0.89526433     1.14500
O686        O  0.48657689  0.51734315  0.73706234    -0.78000
O687        O  0.49234715  0.52232986  0.90372940    -0.77600
Mn688      Mn  0.41653521  0.87504631  0.82243064     1.51100
O689        O  0.99691893  0.86863635  0.77733048    -0.90000
O690        O  0.49845613  0.56218696  0.85737243    -0.97500
O691        O  0.43113586  0.84608898  0.86708290    -0.92500
C692        C  0.49646662  0.55588962  0.89292623     1.12200
C693        C  0.00479762  0.65376470  0.93615965    -0.02800
C694        C  0.47512851  0.63813227  0.96608545     0.06900
C695        C  0.45654600  0.59634947  0.97532157    -0.02900
C696        C  0.46759230  0.57066329  0.95488253    -0.02900
C697        C  0.49279750  0.58492308  0.92103641     0.07000
C698        C  0.01216045  0.62721603  0.91265577    -0.03100
Br699      Br  0.05259976  0.65082854  0.87183503    -0.01700
Br700      Br  0.03798757  0.71214333  0.92889261    -0.01800
Br701      Br  0.44944707  0.51704975  0.97555948    -0.01700
Br702      Br  0.41323296  0.57297259  0.01359820    -0.01700
C703        C  0.98816355  0.82456716  0.94105806    -0.02800
C704        C  0.45666397  0.81610792  0.91321076     0.06900
C705        C  0.42044240  0.77725448  0.91548973    -0.02900
C706        C  0.41911346  0.74672615  0.94048533    -0.02900
C707        C  0.45254724  0.75471133  0.96478105     0.07000
C708        C  0.98693963  0.79378538  0.96519464    -0.03100
Br709      Br  0.03384780  0.80432922  0.99701767    -0.01700
Br710      Br  0.02957038  0.87919919  0.95245606    -0.01800
Br711      Br  0.37206864  0.69297984  0.94110182    -0.01700
Br712      Br  0.37125728  0.76482713  0.88674993    -0.01700
C713        C  0.99919093  0.64862953  0.70412599    -0.02800
C714        C  0.46968318  0.63318747  0.67347199     0.06900
C715        C  0.45025033  0.59105143  0.66408587    -0.02900
C716        C  0.45961549  0.56475957  0.68576728    -0.02900
C717        C  0.48545118  0.57940056  0.71976033     0.07000
C718        C  0.00552774  0.62201062  0.72818217    -0.03100
Br719      Br  0.04567644  0.64603982  0.77002167    -0.01700
Br720      Br  0.03427119  0.70701709  0.71101690    -0.01800
Br721      Br  0.43737360  0.50920378  0.66746277    -0.01700
Br722      Br  0.40899466  0.56845757  0.62297486    -0.01700
C723        C  0.97660857  0.79350530  0.67129454    -0.02800
C724        C  0.44937691  0.75180390  0.67840272     0.06900
C725        C  0.42374721  0.74121205  0.71170893    -0.02900
C726        C  0.42728144  0.77124163  0.73911735    -0.02900
C727        C  0.45565207  0.81292506  0.73309630     0.07000
C728        C  0.97942203  0.82369710  0.69825615    -0.03100
Br729      Br  0.01549744  0.87968477  0.68602843    -0.01700
Br730      Br  0.01216496  0.80975164  0.62585314    -0.01800
Br731      Br  0.39526070  0.75406182  0.78670263    -0.03700
Br732      Br  0.38267806  0.68524656  0.71953581    -0.01700
C733        C  0.34556417  0.03700907  0.91206144    -0.02800
C734        C  0.35338798  0.00397487  0.91395471     0.06900
C735        C  0.33593314  0.97649434  0.94590135    -0.02900
C736        C  0.30828168  0.97909147  0.97220168    -0.02900
C737        C  0.29766704  0.00953493  0.96746280     0.07000
C738        C  0.31727645  0.03907210  0.93799328    -0.03100
Br739      Br  0.30502234  0.08262564  0.93331421    -0.01700
Br740      Br  0.37267241  0.08004873  0.87418536    -0.01800
Br741      Br  0.28287947  0.93906961  0.51338706    -0.01700
Br742      Br  0.35188369  0.93707218  0.95701203    -0.01700
C743        C  0.14520459  0.95911628  0.93560338    -0.02800
C744        C  0.15858222  0.98800023  0.96691834     0.06900
C745        C  0.13520068  0.00645808  0.97663108    -0.02900
C746        C  0.09857368  0.99552779  0.95585564    -0.02900
C747        C  0.08779863  0.97051301  0.92130543     0.07000
C748        C  0.11134342  0.95178922  0.91202583    -0.03100
Br749      Br  0.09476133  0.91121465  0.87047937    -0.01700
Br750      Br  0.17127139  0.92682376  0.92640779    -0.01800
Br751      Br  0.06273693  0.01312960  0.97726765    -0.01700
Br752      Br  0.15493699  0.04969863  0.51604843    -0.01700
C753        C  0.32817259  0.97004190  0.70337443    -0.02800
C754        C  0.34918364  0.00010012  0.73326319     0.06900
C755        C  0.34451397  0.03517493  0.73334183    -0.02900
C756        C  0.31629548  0.03728383  0.70734656    -0.02900
C757        C  0.29361751  0.00578439  0.67984925     0.07000
C758        C  0.29991377  0.97229000  0.67768511    -0.03100
Br759      Br  0.26731675  0.92763031  0.64146086    -0.01700
Br760      Br  0.34072364  0.92791506  0.69330951    -0.01800
Br761      Br  0.30741698  0.08296515  0.70978452    -0.01700
Br762      Br  0.37600239  0.08126628  0.76827104    -0.01700
C763        C  0.13020599  0.00163143  0.66530245    -0.02800
C764        C  0.15563090  0.98584371  0.67663503     0.06900
C765        C  0.14358775  0.95856661  0.70882521    -0.02900
C766        C  0.10819066  0.94913402  0.73031657    -0.02900
C767        C  0.08370362  0.96646146  0.72038911     0.07000
C768        C  0.09354706  0.99040927  0.68575237    -0.03100
Br769      Br  0.05639089  0.00633943  0.66414641    -0.01700
Br770      Br  0.14709514  0.04199008  0.62432010    -0.01800
Br771      Br  0.09120598  0.40802296  0.77034165    -0.01700
Br772      Br  0.17441373  0.43227216  0.72382627    -0.01700
C773        C  0.30932753  0.81659243  0.93745570    -0.02800
C774        C  0.32507000  0.80397134  0.96884116     0.06900
C775        C  0.36654215  0.82877789  0.97979815    -0.02900
C776        C  0.39243338  0.86427106  0.95807114    -0.02900
C777        C  0.37771124  0.87416503  0.92359176     0.07000
C778        C  0.33535708  0.85080324  0.91481754    -0.03100
Br779      Br  0.31067636  0.86791490  0.87502454    -0.01700
Br780      Br  0.25110807  0.78885205  0.92660396    -0.01800
Br781      Br  0.44759421  0.89903124  0.97684658    -0.01700
Br782      Br  0.38903210  0.81310885  0.52300888    -0.01700
C783        C  0.16787155  0.65378290  0.96593054    -0.02800
C784        C  0.20895020  0.66536667  0.95906184     0.06900
C785        C  0.21845187  0.65002846  0.92485493    -0.02900
C786        C  0.18747362  0.62314483  0.89838018    -0.02900
C787        C  0.14617604  0.61087676  0.90549575     0.07000
C788        C  0.13681914  0.62614345  0.93992833    -0.03100
Br789      Br  0.08166724  0.60876936  0.95337509    -0.01700
Br790      Br  0.15398040  0.67880695  0.50878700    -0.01800
Br791      Br  0.20264923  0.60579608  0.85066033    -0.01700
Br792      Br  0.27415054  0.66661953  0.91294225    -0.01700
C793        C  0.30369799  0.81111009  0.70833207    -0.02800
C794        C  0.31873718  0.79799506  0.67662052     0.06900
C795        C  0.36036258  0.82182635  0.66679050    -0.02900
C796        C  0.38584303  0.85891917  0.68710303    -0.02900
C797        C  0.37249431  0.86892398  0.72247826     0.07000
C798        C  0.33063817  0.84455414  0.73242964    -0.03100
Br799      Br  0.30758733  0.85934733  0.77579849    -0.01700
Br800      Br  0.24550169  0.78576084  0.71714930    -0.01800
Br801      Br  0.43686965  0.89687026  0.66311822    -0.01700
Br802      Br  0.38419376  0.80213647  0.62833496    -0.01700
C803        C  0.17921952  0.60660046  0.72412115    -0.02800
C804        C  0.13948886  0.60192587  0.72555951     0.06900
C805        C  0.12954718  0.62213701  0.69603131    -0.02900
C806        C  0.15966744  0.65119604  0.67088664    -0.02900
C807        C  0.20011575  0.65936516  0.67339835     0.07000
C808        C  0.20952491  0.63641868  0.69955371    -0.03100
Br809      Br  0.26482195  0.64703695  0.70218348    -0.01700
Br810      Br  0.19293868  0.57105829  0.75269634    -0.01800
Br811      Br  0.14600289  0.68201035  0.63476452    -0.01700
Br812      Br  0.07402158  0.60599425  0.68480186    -0.01700
C813        C  0.73323169  0.19395775  0.15129229     0.79200
N814        N  0.73487624  0.19380085  0.11083779    -0.79100
C815        C  0.76464567  0.22692982  0.09155241     0.81700
N816        N  0.79179087  0.26019184  0.11299505    -0.79000
C817        C  0.79051624  0.26058043  0.15327194     0.81800
N818        N  0.76131841  0.22712339  0.17203867    -0.80700
C819        C  0.74188951  0.19738951  0.48458426     0.79200
N820        N  0.74016603  0.19544945  0.02493234    -0.79100
C821        C  0.76707372  0.22788047  0.04759992     0.81700
N822        N  0.79532159  0.26274597  0.02950609    -0.79000
C823        C  0.79754559  0.26486236  0.48932238     0.81800
N824        N  0.77089895  0.23197726  0.46734256    -0.80700
C825        C  0.76064882  0.50604204  0.15617314     0.79200
N826        N  0.76149783  0.50650080  0.11583607    -0.79100
C827        C  0.72895378  0.50260989  0.09473154     0.81700
N828        N  0.69498528  0.49675849  0.11431995    -0.79000
C829        C  0.69393738  0.49636722  0.15469579     0.81800
N830        N  0.72723990  0.50173174  0.17512680    -0.80700
C831        C  0.76331810  0.50807313  0.49032318     0.79200
N832        N  0.76314017  0.50816396  0.03079213    -0.79100
C833        C  0.72971348  0.50318552  0.05083122     0.81700
N834        N  0.69628377  0.49746526  0.03011907    -0.79000
C835        C  0.69621947  0.49754487  0.48976614     0.81800
N836        N  0.72994185  0.50310555  0.47027986    -0.80700
C837        C  0.95073147  0.21923582  0.15410978     0.79200
N838        N  0.95566977  0.19023973  0.17270172    -0.79100
C839        C  0.96028533  0.16189143  0.15188029     0.81700
N840        N  0.95990962  0.16279682  0.11159622    -0.79000
C841        C  0.95444439  0.19124591  0.09230128     0.81800
N842        N  0.95002042  0.21954835  0.11369913    -0.80700
C843        C  0.95296173  0.22162022  0.48765009     0.79200
N844        N  0.95928893  0.19387068  0.46798803    -0.79100
C845        C  0.96452163  0.16583534  0.48800345     0.81700
N846        N  0.96276179  0.16534687  0.02822309    -0.79000
C847        C  0.95556472  0.19236261  0.04844446     0.81800
N848        N  0.95126975  0.22097353  0.02803237    -0.80700
O849        O  0.90593293  0.02589608  0.27826294    -0.89200
C850        C  0.61400147  0.08389349  0.37584202     1.10900
O851        O  0.94461049  0.48131131  0.32175777    -1.37000
O852        O  0.58565044  0.09028768  0.27149640    -0.90600
O853        O  0.86293759  0.45881667  0.27812514    -0.91300
O854        O  0.93524433  0.43203270  0.23873412    -0.80100
O855        O  0.99492157  0.05892607  0.28308205    -1.02200
C856        C  0.55075322  0.46211084  0.24826632     1.20900
O857        O  0.97599787  0.42814213  0.32170184    -1.37100
Mn858      Mn  0.98440799  0.47516909  0.36418869     1.82100
O859        O  0.52076663  0.46561633  0.23759930    -0.79200
O860        O  0.61121612  0.04864141  0.27422753    -0.88600
C861        C  0.55433242  0.46583606  0.39356564     1.12000
C862        C  0.60994998  0.07850884  0.25868256     1.06700
O863        O  0.93963451  0.43662189  0.40546606    -0.80100
O864        O  0.52909411  0.01266878  0.32028827    -1.33800
O865        O  0.89794539  0.40201000  0.35986830    -0.99400
C866        C  0.96122881  0.34419837  0.26415360     1.05400
Mn867      Mn  0.58225650  0.00637114  0.32007733     1.48600
O868        O  0.92968180  0.34400338  0.27757505    -0.88600
Mn869      Mn  0.88296961  0.43320579  0.32299951     1.49600
O870        O  0.90901308  0.02854955  0.36791388    -0.92400
C871        C  0.99038977  0.05106466  0.24767422     1.18600
C872        C  0.87784065  0.49749186  0.38196928     1.10700
Mn873      Mn  0.98202756  0.47281391  0.27817599     1.81000
O874        O  0.55730470  0.46178610  0.35807619    -0.97600
Mn875      Mn  0.95110275  0.04089344  0.32173759     1.49300
C876        C  0.87436657  0.49443008  0.26480389     1.07200
Mn877      Mn  0.52427668  0.41486396  0.32180390     1.49900
C878        C  0.96249765  0.34644099  0.38117332     1.10100
O879        O  0.89571544  0.40008179  0.28556452    -1.03400
O880        O  0.61341085  0.05160945  0.36386341    -0.93000
C881        C  0.90179908  0.40283261  0.24995363     1.21400
O882        O  0.55520515  0.45970608  0.28379567    -1.03800
O883        O  0.58980515  0.09511092  0.36195968    -0.91200
O884        O  0.49817361  0.37040304  0.36774764    -0.90800
O885        O  0.86575330  0.46143532  0.36858543    -0.90800
Mn886      Mn  0.54245841  0.07424437  0.31855867     1.47900
O887        O  0.52486719  0.46998624  0.40439626    -0.79300
C888        C  0.90585788  0.40658815  0.39526846     1.14500
O889        O  0.98659098  0.01735220  0.23710116    -0.78000
O890        O  0.99229403  0.02228378  0.40376831    -0.77600
Mn891      Mn  0.91657173  0.37505864  0.32243797     1.51100
O892        O  0.49695960  0.36865266  0.27739418    -0.90000
O893        O  0.99842641  0.06214013  0.35740582    -0.97500
O894        O  0.93119125  0.34611991  0.36709847    -0.92500
C895        C  0.99641599  0.05584319  0.39295989     1.12200
C896        C  0.50469243  0.15373125  0.43610128    -0.02800
C897        C  0.97506060  0.13810437  0.46608972     0.06900
C898        C  0.95647490  0.09632128  0.47533133    -0.02900
C899        C  0.96752008  0.07062739  0.45490128    -0.02900
C900        C  0.99272691  0.08487807  0.42105424     0.07000
C901        C  0.51207026  0.12717599  0.41262109    -0.03100
Br902      Br  0.55246281  0.15076405  0.37175186    -0.01700
Br903      Br  0.53781119  0.21209971  0.42872817    -0.01800
Br904      Br  0.94934132  0.01700382  0.47557342    -0.01700
Br905      Br  0.91314645  0.07295173  0.51359339    -0.01700
C906        C  0.48823846  0.32458442  0.44106832    -0.02800
C907        C  0.95670803  0.31617148  0.41328758     0.06900
C908        C  0.92042865  0.27736981  0.41565147    -0.02900
C909        C  0.91908384  0.24681952  0.44062775    -0.02900
C910        C  0.95255131  0.25473885  0.46483856     0.07000
C911        C  0.48698947  0.29378507  0.46519662    -0.03100
Br912      Br  0.53390830  0.30425375  0.49696492    -0.01700
Br913      Br  0.52974538  0.37918333  0.45242017    -0.01800
Br914      Br  0.87196811  0.19312897  0.44133854    -0.01700
Br915      Br  0.87118036  0.26505316  0.38708511    -0.01700
C916        C  0.49945582  0.14870301  0.20403903    -0.02800
C917        C  0.96988678  0.13326953  0.17345064     0.06900
C918        C  0.95032518  0.09111546  0.16413651    -0.02900
C919        C  0.95963224  0.06479251  0.18583332    -0.02900
C920        C  0.98554178  0.07943719  0.21977515     0.07000
C921        C  0.50574254  0.12206577  0.22811773    -0.03100
Br922      Br  0.54597439  0.14607714  0.26988545    -0.01700
Br923      Br  0.53468404  0.20708398  0.21078141    -0.01800
Br924      Br  0.93719168  0.00918221  0.16763315    -0.01700
Br925      Br  0.90898330  0.06855766  0.12310275    -0.01700
C926        C  0.47655771  0.29355991  0.17127648    -0.02800
C927        C  0.94952030  0.25184158  0.17849738     0.06900
C928        C  0.92402438  0.24121939  0.21191682    -0.02900
C929        C  0.92756708  0.27124563  0.23933316    -0.02900
C930        C  0.95576618  0.31294458  0.23319041     0.07000
C931        C  0.47936841  0.32374000  0.19825119    -0.03100
Br932      Br  0.51531013  0.37974439  0.18597531    -0.01700
Br933      Br  0.51190861  0.30987356  0.12567681    -0.01800
Br934      Br  0.89586961  0.25407762  0.28712613    -0.03700
Br935      Br  0.88311604  0.18522417  0.21990332    -0.01700
C936        C  0.84568798  0.53707794  0.41214147    -0.02800
C937        C  0.85344876  0.50399879  0.41398463     0.06900
C938        C  0.83594169  0.47647876  0.44589303    -0.02900
C939        C  0.80827748  0.47906773  0.47217950    -0.02900
C940        C  0.79768899  0.50953023  0.46745325     0.07000
C941        C  0.81734611  0.53910185  0.43802457    -0.03100
Br942      Br  0.80506410  0.58263251  0.43331706    -0.01700
Br943      Br  0.87301517  0.58027994  0.37446479    -0.01800
Br944      Br  0.78291481  0.43902280  0.01337652    -0.01700
Br945      Br  0.85187106  0.43704014  0.45699867    -0.01700
C946        C  0.64523490  0.45913433  0.43559070    -0.02800
C947        C  0.65861215  0.48801260  0.46690901     0.06900
C948        C  0.63522155  0.50645585  0.47663654    -0.02900
C949        C  0.59857684  0.49549930  0.45588590    -0.02900
C950        C  0.58783023  0.47053581  0.42130242     0.07000
C951        C  0.61139332  0.45183653  0.41199672    -0.03100
Br952      Br  0.59484934  0.41131274  0.37040580    -0.01700
Br953      Br  0.67125793  0.42679499  0.42643227    -0.01800
Br954      Br  0.56265408  0.51293623  0.47741193    -0.01700
Br955      Br  0.65501068  0.54967013  0.01602055    -0.01700
C956        C  0.82827246  0.47015716  0.20331757    -0.02800
C957        C  0.84917664  0.50012241  0.23330759     0.06900
C958        C  0.84439925  0.53513086  0.23351808    -0.02900
C959        C  0.81616659  0.53725241  0.20755393    -0.02900
C960        C  0.79363766  0.50586826  0.17989451     0.07000
C961        C  0.80005765  0.47245267  0.17759813    -0.03100
Br962      Br  0.76766851  0.42793421  0.14115852    -0.01700
Br963      Br  0.84088085  0.42807535  0.19320611    -0.01800
Br964      Br  0.80706417  0.58278517  0.21029569    -0.01700
Br965      Br  0.87576982  0.58111773  0.26859699    -0.01700
C966        C  0.63017903  0.50160235  0.16526271    -0.02800
C967        C  0.65560894  0.48581956  0.17659188     0.06900
C968        C  0.64356565  0.45853168  0.20877069    -0.02900
C969        C  0.60817266  0.44909761  0.23027015    -0.02900
C970        C  0.58369601  0.46644299  0.22036715     0.07000
C971        C  0.59353500  0.49039806  0.18573453    -0.03100
Br972      Br  0.55640549  0.50639011  0.16418100    -0.01700
Br973      Br  0.64703630  0.54191916  0.12424326    -0.01800
Br974      Br  0.59125810  0.90808574  0.27044082    -0.01700
Br975      Br  0.67437466  0.93222476  0.22378931    -0.01700
C976        C  0.80934652  0.31662616  0.43751292    -0.02800
C977        C  0.82509684  0.30397433  0.46886336     0.06900
C978        C  0.86658599  0.32874023  0.47977811    -0.02900
C979        C  0.89248123  0.36422723  0.45804249    -0.02900
C980        C  0.87774435  0.37415169  0.42359127     0.07000
C981        C  0.83538152  0.35080742  0.41484044    -0.03100
Br982      Br  0.81070476  0.36787272  0.37499765    -0.01700
Br983      Br  0.75111035  0.28897105  0.42677588    -0.01800
Br984      Br  0.94768615  0.39890912  0.47673822    -0.01700
Br985      Br  0.88905748  0.31313078  0.02300868    -0.01700
C986        C  0.66789096  0.15379085  0.46593565    -0.02800
C987        C  0.70896489  0.16535681  0.45906835     0.06900
C988        C  0.71844908  0.14996064  0.42489302    -0.02900
C989        C  0.68745188  0.12298212  0.39848470    -0.02900
C990        C  0.64616297  0.11078903  0.40556122     0.07000
C991        C  0.63682783  0.12614243  0.43994604    -0.03100
Br992      Br  0.58168568  0.10886405  0.45335426    -0.01700
Br993      Br  0.65405447  0.17905042  0.00863618    -0.01800
Br994      Br  0.70259899  0.10534743  0.35093312    -0.01700
Br995      Br  0.77414997  0.16664146  0.41289433    -0.01700
C996        C  0.80369257  0.31118304  0.20831488    -0.02800
C997        C  0.81873555  0.29805060  0.17661979     0.06900
C998        C  0.86036016  0.32187427  0.16678859    -0.02900
C999        C  0.88584056  0.35896866  0.18709358    -0.02900
C1000       C  0.87249499  0.36897704  0.22246694     0.07000
C1001       C  0.83063139  0.34464031  0.23240003    -0.03100
Br1002     Br  0.80757824  0.35951627  0.27570716    -0.01700
Br1003     Br  0.74549683  0.28582609  0.21713184    -0.01800
Br1004     Br  0.93684025  0.39693690  0.16307839    -0.01700
Br1005     Br  0.88419295  0.30217083  0.12834839    -0.01700
C1006       C  0.67930710  0.10667196  0.22424558    -0.02800
C1007       C  0.63954163  0.10191306  0.22562284     0.06900
C1008       C  0.62958070  0.12206578  0.19605055    -0.02900
C1009       C  0.65969846  0.15114777  0.17091663    -0.02900
C1010       C  0.70017110  0.15938998  0.17346939     0.07000
C1011       C  0.70961709  0.13652368  0.19970239    -0.03100
Br1012     Br  0.76497215  0.14731882  0.20251581    -0.01700
Br1013     Br  0.69305341  0.07116432  0.25284013    -0.01800
Br1014     Br  0.64599666  0.18192761  0.13478803    -0.01700
Br1015     Br  0.57403686  0.10577471  0.18472708    -0.01700
C1016       C  0.73319528  0.19395250  0.65132903     0.79200
N1017       N  0.73485752  0.19380473  0.61087815    -0.79100
C1018       C  0.76463587  0.22693408  0.59160630     0.81700
N1019       N  0.79177718  0.26019071  0.61306044    -0.79000
C1020       C  0.79048680  0.26057047  0.65333874     0.81800
N1021       N  0.76127664  0.22710916  0.67209156    -0.80700
C1022       C  0.74185536  0.19741323  0.98452622     0.79200
N1023       N  0.74017474  0.19544183  0.52499007    -0.79100
C1024       C  0.76707916  0.22787746  0.54765605     0.81700
N1025       N  0.79533508  0.26273601  0.52956078    -0.79000
C1026       C  0.79751527  0.26488712  0.98926731     0.81800
N1027       N  0.77085466  0.23201064  0.96728744    -0.80700
C1028       C  0.76074772  0.50610856  0.65611332     0.79200
N1029       N  0.76154676  0.50652355  0.61577608    -0.79100
C1030       C  0.72897957  0.50261767  0.59470187     0.81700
N1031       N  0.69503619  0.49679196  0.61432251    -0.79000
C1032       C  0.69403995  0.49645205  0.65470137     0.81800
N1033       N  0.72736925  0.50183909  0.67509596    -0.80700
C1034       C  0.76335054  0.50813033  0.99035541     0.79200
N1035       N  0.76312013  0.50813087  0.53075702    -0.79100
C1036       C  0.72970198  0.50316193  0.55080135     0.81700
N1037       N  0.69626366  0.49743197  0.53009529    -0.79000
C1038       C  0.69625175  0.49759999  0.98979291     0.81800
N1039       N  0.72997893  0.50317182  0.97030937    -0.80700
C1040       C  0.95062143  0.21924374  0.65409696     0.79200
N1041       N  0.95548586  0.19021643  0.67271896    -0.79100
C1042       C  0.96011666  0.16185952  0.65192803     0.81700
N1043       N  0.95980321  0.16277434  0.61163988    -0.79000
C1044       C  0.95438929  0.19124246  0.59231595     0.81800
N1045       N  0.94997214  0.21956399  0.61368720    -0.80700
C1046       C  0.95296650  0.22159951  0.98762890     0.79200
N1047       N  0.95928781  0.19384102  0.96797267    -0.79100
C1048       C  0.96451548  0.16580622  0.98799782     0.81700
N1049       N  0.96275539  0.16535924  0.52823202    -0.79000
C1050       C  0.95554587  0.19236674  0.54845830     0.81800
N1051       N  0.95125195  0.22097951  0.52805061    -0.80700
O1052       O  0.90585928  0.02583724  0.77830187    -0.89200
C1053       C  0.61395897  0.08386542  0.87581222     1.10900
O1054       O  0.94465018  0.48138410  0.82178179    -1.37000
O1055       O  0.58558653  0.09023957  0.77147377    -0.90600
O1056       O  0.86299243  0.45890441  0.77814015    -0.91300
O1057       O  0.93525130  0.43206759  0.73875862    -0.80100
O1058       O  0.99482856  0.05886323  0.78310144    -1.02200
C1059       C  0.55082493  0.46216211  0.74827444     1.20900
O1060       O  0.97602592  0.42820048  0.82172653    -1.37100
Mn1061     Mn  0.98445115  0.47523880  0.86421088     1.82100
O1062       O  0.52083040  0.46564557  0.73759287    -0.79200
O1063       O  0.61118841  0.04862446  0.77421921    -0.88600
C1064       C  0.55437638  0.46587705  0.89357373     1.12000
C1065       C  0.60990452  0.07848060  0.75867070     1.06700
O1066       O  0.93967921  0.43669555  0.90550158    -0.80100
O1067       O  0.52906287  0.01262132  0.82025520    -1.33800
O1068       O  0.89798621  0.40209349  0.85990238    -0.99400
C1069       C  0.96122446  0.34423945  0.76416741     1.05400
Mn1070     Mn  0.58223554  0.00634105  0.82005469     1.48600
O1071       O  0.92968768  0.34404477  0.77761893    -0.88600
Mn1072     Mn  0.88301127  0.43328743  0.82302710     1.49600
O1073       O  0.90893557  0.02846931  0.86794964    -0.92400
C1074       C  0.99028217  0.05102035  0.74769040     1.18600
C1075       C  0.87789737  0.49759040  0.88199323     1.10700
Mn1076     Mn  0.98204780  0.47286666  0.77819512     1.81000
O1077       O  0.55735298  0.46181649  0.85808546    -0.97600
Mn1078     Mn  0.95102689  0.04083378  0.82176688     1.49300
C1079       C  0.87442268  0.49451984  0.76481856     1.07200
Mn1080     Mn  0.52433076  0.41489938  0.82179688     1.49900
C1081       C  0.96253998  0.34647710  0.88117502     1.10100
O1082       O  0.89574303  0.40013966  0.78560592    -1.03400
O1083       O  0.61338275  0.05158315  0.86384763    -0.93000
C1084       C  0.90181319  0.40286494  0.74999336     1.21400
O1085       O  0.55525552  0.45975261  0.78380526    -1.03800
O1086       O  0.58975425  0.09506681  0.86192135    -0.91200
O1087       O  0.49823275  0.37042169  0.86771689    -0.90800
O1088       O  0.86580916  0.46153604  0.86860564    -0.90800
Mn1089     Mn  0.54239914  0.07418506  0.81852877     1.47900
O1090       O  0.52491811  0.47004382  0.90439531    -0.79300
C1091       C  0.90589547  0.40667006  0.89530245     1.14500
O1092       O  0.98650708  0.01732382  0.73709446    -0.78000
O1093       O  0.99225517  0.02223123  0.90377144    -0.77600
Mn1094     Mn  0.91659956  0.37512066  0.82248149     1.51100
O1095       O  0.49701420  0.36868975  0.77737020    -0.90000
O1096       O  0.99836269  0.06208999  0.85742073    -0.97500
O1097       O  0.93123151  0.34618507  0.86714231    -0.92500
C1098       C  0.99636760  0.05578925  0.89297232     1.12200
C1099       C  0.50483175  0.15372091  0.93617289    -0.02800
C1100       C  0.97504947  0.13806390  0.96610458     0.06900
C1101       C  0.95643030  0.09627493  0.97533599    -0.02900
C1102       C  0.96744324  0.07056182  0.95489389    -0.02900
C1103       C  0.99269261  0.08482189  0.92107679     0.07000
C1104       C  0.51216187  0.12714914  0.91266778    -0.03100
Br1105     Br  0.55261064  0.15073388  0.87185382    -0.01700
Br1106     Br  0.53807461  0.21209499  0.92891437    -0.01800
Br1107     Br  0.94912416  0.01687746  0.97547877    -0.01700
Br1108     Br  0.91312176  0.07293421  0.01362080    -0.01700
C1109       C  0.48826562  0.32461999  0.94107310    -0.02800
C1110       C  0.95675923  0.31618039  0.91326063     0.06900
C1111       C  0.92047354  0.27738069  0.91561870    -0.02900
C1112       C  0.91910211  0.24682716  0.94061207    -0.02900
C1113       C  0.95257362  0.25472601  0.96480963     0.07000
C1114       C  0.48703497  0.29381707  0.96518246    -0.03100
Br1115     Br  0.53395430  0.30433012  0.99697244    -0.01700
Br1116     Br  0.52967901  0.37924642  0.95249902    -0.01800
Br1117     Br  0.87192984  0.19316685  0.94138130    -0.01700
Br1118     Br  0.87126206  0.26505630  0.88698277    -0.01700
C1119       C  0.49919761  0.14858787  0.70416077    -0.02800
C1120       C  0.96968936  0.13323061  0.67353839     0.06900
C1121       C  0.95020080  0.09109040  0.66416540    -0.02900
C1122       C  0.95952633  0.06476975  0.68584734    -0.02900
C1123       C  0.98538782  0.07939327  0.71982462     0.07000
C1124       C  0.50551916  0.12195236  0.72820361    -0.03100
Br1125     Br  0.54566252  0.14595254  0.77005143    -0.01700
Br1126     Br  0.53429131  0.20697000  0.71108146    -0.01800
Br1127     Br  0.93719028  0.00919663  0.66756725    -0.01700
Br1128     Br  0.90892230  0.06853963  0.62307114    -0.01700
C1129       C  0.47685443  0.29352796  0.67144741    -0.02800
C1130       C  0.94943371  0.25187755  0.67845771     0.06900
C1131       C  0.92385309  0.24127872  0.71180466    -0.02900
C1132       C  0.92744281  0.27129705  0.73925591    -0.02900
C1133       C  0.95573916  0.31298624  0.73318386     0.07000
C1134       C  0.47962393  0.32372456  0.69837231    -0.03100
Br1135     Br  0.51574553  0.37969734  0.68614723    -0.01700
Br1136     Br  0.51265825  0.30972427  0.62619623    -0.01800
Br1137     Br  0.89567001  0.25410440  0.78699760    -0.03700
Br1138     Br  0.88273835  0.18533108  0.71960557    -0.01700
C1139       C  0.84569085  0.53713490  0.91213802    -0.02800
C1140       C  0.85349806  0.50408885  0.91400587     0.06900
C1141       C  0.83601368  0.47657855  0.94592395    -0.02900
C1142       C  0.80830414  0.47912379  0.97218193    -0.02900
C1143       C  0.79772414  0.50959529  0.96747923     0.07000
C1144       C  0.81737559  0.53917069  0.93805082    -0.03100
Br1145     Br  0.80511203  0.58271502  0.93337315    -0.01700
Br1146     Br  0.87288490  0.58024756  0.87435028    -0.01800
Br1147     Br  0.78299657  0.43906681  0.51347786    -0.01700
Br1148     Br  0.85205237  0.43723225  0.95709102    -0.01700
C1149       C  0.64525531  0.45916398  0.93564401    -0.02800
C1150       C  0.65864728  0.48806818  0.96693721     0.06900
C1151       C  0.63527500  0.50653604  0.97664488    -0.02900
C1152       C  0.59864835  0.49560680  0.95587003    -0.02900
C1153       C  0.58787314  0.47059018  0.92131998     0.07000
C1154       C  0.61140989  0.45185388  0.91205185    -0.03100
Br1155     Br  0.59484156  0.41128689  0.87050407    -0.01700
Br1156     Br  0.67126544  0.42680578  0.92652579    -0.01800
Br1157     Br  0.56281137  0.51320454  0.97728973    -0.01700
Br1158     Br  0.65496585  0.54961857  0.51597824    -0.01700
C1159       C  0.82838785  0.47025506  0.70329084    -0.02800
C1160       C  0.84925614  0.50021361  0.73329511     0.06900
C1161       C  0.84448557  0.53522671  0.73347461    -0.02900
C1162       C  0.81626874  0.53734380  0.70748406    -0.02900
C1163       C  0.79376328  0.50596153  0.67981666     0.07000
C1164       C  0.80021161  0.47256262  0.67752279    -0.03100
Br1165     Br  0.76792283  0.42808745  0.64100849    -0.01700
Br1166     Br  0.84097511  0.42814431  0.69325740    -0.01800
Br1167     Br  0.80715923  0.58287316  0.71018547    -0.01700
Br1168     Br  0.87584328  0.58122644  0.76854213    -0.01700
C1169       C  0.63023418  0.50161562  0.66524360    -0.02800
C1170       C  0.65573814  0.48593803  0.67664199     0.06900
C1171       C  0.64377456  0.45876275  0.70891485    -0.02900
C1172       C  0.60834812  0.44928130  0.73037618    -0.02900
C1173       C  0.58380057  0.46652758  0.72040087     0.07000
C1174       C  0.59358920  0.49040399  0.68571831    -0.03100
Br1175     Br  0.55637586  0.50625062  0.66408677    -0.01700
Br1176     Br  0.64698540  0.54181157  0.62411714    -0.01800
Br1177     Br  0.59124422  0.90804966  0.77040747    -0.01700
Br1178     Br  0.67438249  0.93220265  0.72379021    -0.01700
C1179       C  0.80935891  0.31668997  0.93747264    -0.02800
C1180       C  0.82508732  0.30400150  0.96881482     0.06900
C1181       C  0.86658094  0.32873774  0.97973514    -0.02900
C1182       C  0.89249594  0.36424274  0.95803064    -0.02900
C1183       C  0.87776866  0.37423089  0.92361539     0.07000
C1184       C  0.83540553  0.35091917  0.91486055    -0.03100
Br1185     Br  0.81074940  0.36809134  0.87509503    -0.01700
Br1186     Br  0.75114202  0.28899441  0.92662564    -0.01800
Br1187     Br  0.94772271  0.39885441  0.97670613    -0.01700
Br1188     Br  0.88907350  0.31321984  0.52311084    -0.01700
C1189       C  0.66783627  0.15365680  0.96597552    -0.02800
C1190       C  0.70893488  0.16536981  0.95900844     0.06900
C1191       C  0.71843229  0.15010795  0.92473898    -0.02900
C1192       C  0.68742876  0.12312625  0.89833792    -0.02900
C1193       C  0.64612531  0.11078922  0.90551200     0.07000
C1194       C  0.63677546  0.12602253  0.93997271    -0.03100
Br1195     Br  0.58162025  0.10864075  0.95342731    -0.01700
Br1196     Br  0.65417547  0.17942755  0.50841616    -0.01800
Br1197     Br  0.70256620  0.10569763  0.85064924    -0.01700
Br1198     Br  0.77415104  0.16695293  0.91260852    -0.01700
C1199       C  0.80369195  0.31117150  0.70840558    -0.02800
C1200       C  0.81871869  0.29803096  0.67670136     0.06900
C1201       C  0.86034596  0.32183665  0.66687359    -0.02900
C1202       C  0.88583961  0.35893697  0.68716769    -0.02900
C1203       C  0.87250262  0.36897794  0.72252868     0.07000
C1204       C  0.83064197  0.34464053  0.73247693    -0.03100
Br1205     Br  0.80761064  0.35951157  0.77580733    -0.01700
Br1206     Br  0.74550243  0.28580016  0.71726624    -0.01800
Br1207     Br  0.93685897  0.39686085  0.66316147    -0.01700
Br1208     Br  0.88416131  0.30208959  0.62845703    -0.01700
C1209       C  0.67923719  0.10660047  0.72419299    -0.02800
C1210       C  0.63949246  0.10189351  0.72561584     0.06900
C1211       C  0.62954852  0.12210757  0.69609384    -0.02900
C1212       C  0.65967018  0.15119201  0.67096836    -0.02900
C1213       C  0.70012417  0.15937757  0.67348021     0.07000
C1214       C  0.70954496  0.13644295  0.69964287    -0.03100
Br1215     Br  0.76486275  0.14712235  0.70232643    -0.01700
Br1216     Br  0.69297162  0.07106412  0.75275611    -0.01800
Br1217     Br  0.64600202  0.18203823  0.63489307    -0.01700
Br1218     Br  0.57401855  0.10593593  0.68484575    -0.01700
C1219       C  0.73316494  0.69397053  0.15129716     0.79200
N1220       N  0.73483862  0.69381156  0.11084933    -0.79100
C1221       C  0.76462379  0.72693220  0.09157669     0.81700
N1222       N  0.79176603  0.76019219  0.11302541    -0.79000
C1223       C  0.79046670  0.76058341  0.15330243     0.81800
N1224       N  0.76124485  0.72713023  0.17205910    -0.80700
C1225       C  0.74182019  0.69739713  0.48453876     0.79200
N1226       N  0.74016906  0.69541268  0.02497476    -0.79100
C1227       C  0.76707333  0.72785676  0.04763098     0.81700
N1228       N  0.79533112  0.76270721  0.02952775    -0.79000
C1229       C  0.79747831  0.76487339  0.48926962     0.81800
N1230       N  0.77081335  0.73199504  0.46729497    -0.80700
C1231       C  0.76066341  0.00605303  0.15615800     0.79200
N1232       N  0.76146971  0.00647291  0.11582070    -0.79100
C1233       C  0.72891596  0.00259441  0.09474233     0.81700
N1234       N  0.69497687  0.99678628  0.11435924    -0.79000
C1235       C  0.69397275  0.99643330  0.15473776     0.81800
N1236       N  0.72728951  0.00179571  0.17513896    -0.80700
C1237       C  0.76338103  0.00823071  0.49034148     0.79200
N1238       N  0.76306242  0.00811408  0.03079456    -0.79100
C1239       C  0.72964442  0.00314562  0.05084100     0.81700
N1240       N  0.69620627  0.99741798  0.03013635    -0.79000
C1241       C  0.69628351  0.99771385  0.48978323     0.81800
N1242       N  0.73001486  0.00329350  0.47029912    -0.80700
C1243       C  0.95066741  0.71926766  0.15407017     0.79200
N1244       N  0.95553425  0.69024493  0.17269932    -0.79100
C1245       C  0.96016547  0.66188491  0.15191500     0.81700
N1246       N  0.95984431  0.66279130  0.11162637    -0.79000
C1247       C  0.95442431  0.69125493  0.09229910     0.81800
N1248       N  0.95000990  0.71957914  0.11366324    -0.80700
C1249       C  0.95285744  0.72150282  0.48757676     0.79200
N1250       N  0.95921197  0.69375922  0.46793633    -0.79100
C1251       C  0.96444155  0.66573313  0.48797490     0.81700
N1252       N  0.96277196  0.66536161  0.02822400    -0.79000
C1253       C  0.95556160  0.69236801  0.04844544     0.81800
N1254       N  0.95125043  0.72096958  0.02803532    -0.80700
O1255       O  0.90588160  0.52581957  0.27826748    -0.89200
C1256       C  0.61397233  0.58391144  0.37577631     1.10900
O1257       O  0.94463778  0.98135848  0.32177569    -1.37000
O1258       O  0.58557558  0.59026497  0.27145637    -0.90600
O1259       O  0.86298292  0.95889283  0.27813255    -0.91300
O1260       O  0.93525638  0.93205187  0.23875225    -0.80100
O1261       O  0.99484633  0.55884340  0.28307072    -1.02200
C1262       C  0.55076672  0.96213472  0.24829899     1.20900
O1263       O  0.97600230  0.92816356  0.32173140    -1.37100
Mn1264     Mn  0.98441847  0.97519829  0.36421711     1.82100
O1265       O  0.52078439  0.96564167  0.23762452    -0.79200
O1266       O  0.61116999  0.54864191  0.27417711    -0.88600
C1267       C  0.55432556  0.96583080  0.39360001     1.12000
C1268       C  0.60988344  0.57849990  0.25863605     1.06700
O1269       O  0.93963484  0.93666150  0.40549429    -0.80100
O1270       O  0.52907110  0.51265011  0.32025676    -1.33800
O1271       O  0.89794657  0.90205781  0.35989301    -0.99400
C1272       C  0.96120680  0.84421493  0.26415117     1.05400
Mn1273     Mn  0.58224887  0.50637867  0.32003376     1.48600
O1274       O  0.92967215  0.84402286  0.27760702    -0.88600
Mn1275     Mn  0.88299324  0.93326562  0.32301423     1.49600
O1276       O  0.90897893  0.52847928  0.36791287    -0.92400
C1277       C  0.99030436  0.55100879  0.24766057     1.18600
C1278       C  0.87786615  0.99756465  0.38196670     1.10700
Mn1279     Mn  0.98204785  0.97284077  0.27820304     1.81000
O1280       O  0.55730015  0.96176826  0.35811099    -0.97600
Mn1281     Mn  0.95105452  0.54083226  0.32173265     1.49300
C1282       C  0.87441480  0.99450538  0.26480102     1.07200
Mn1283     Mn  0.52426710  0.91486013  0.32181298     1.49900
C1284       C  0.96248504  0.84642211  0.38116060     1.10100
O1285       O  0.89573789  0.90012695  0.28559360    -1.03400
O1286       O  0.61341923  0.55164389  0.36380047    -0.93000
C1287       C  0.90181356  0.90285101  0.24998240     1.21400
O1288       O  0.55520036  0.95971902  0.28382853    -1.03800
O1289       O  0.58975367  0.59509853  0.36190125    -0.91200
O1290       O  0.49815782  0.87036382  0.36772312    -0.90800
O1291       O  0.86577906  0.96150709  0.36858983    -0.90800
Mn1292     Mn  0.54240047  0.57421141  0.31852443     1.47900
O1293       O  0.52486251  0.96998906  0.40442378    -0.79300
C1294       C  0.90585110  0.90663929  0.39529492     1.14500
O1295       O  0.98653633  0.51731545  0.23706266    -0.78000
O1296       O  0.99228688  0.52224673  0.40373721    -0.77600
Mn1297     Mn  0.91657263  0.87509257  0.32247107     1.51100
O1298       O  0.49694525  0.86866931  0.27737187    -0.90000
O1299       O  0.99839274  0.56211570  0.35739250    -0.97500
O1300       O  0.93118544  0.84614867  0.36713141    -0.92500
C1301       C  0.99640218  0.55580680  0.39294434     1.12200
C1302       C  0.50471541  0.65367281  0.43617102    -0.02800
C1303       C  0.97502303  0.63801959  0.46609558     0.06900
C1304       C  0.95641950  0.59622905  0.47531163    -0.02900
C1305       C  0.96746554  0.57054183  0.45487202    -0.02900
C1306       C  0.99272806  0.58482619  0.42106633     0.07000
C1307       C  0.51212954  0.62713841  0.41270046    -0.03100
Br1308     Br  0.55264532  0.65076718  0.37195043    -0.01700
Br1309     Br  0.53787043  0.71205082  0.42888616    -0.01800
Br1310     Br  0.94919819  0.51686966  0.47546272    -0.01700
Br1311     Br  0.91308617  0.57284716  0.51356598    -0.01700
C1312       C  0.48816110  0.82451527  0.44107182    -0.02800
C1313       C  0.95668255  0.81610986  0.41323003     0.06900
C1314       C  0.92043280  0.77727524  0.41548720    -0.02900
C1315       C  0.91906487  0.74669715  0.44043560    -0.02900
C1316       C  0.95247099  0.75462793  0.46474950     0.07000
C1317       C  0.48687632  0.79370015  0.46520699    -0.03100
Br1318     Br  0.53371758  0.80418233  0.49711136    -0.01700
Br1319     Br  0.52967184  0.87911834  0.45243570    -0.01800
Br1320     Br  0.87199938  0.69295816  0.44095266    -0.01700
Br1321     Br  0.87125158  0.76494344  0.38679034    -0.01700
C1322       C  0.49918299  0.64865135  0.20422335    -0.02800
C1323       C  0.96972660  0.63324845  0.17353223     0.06900
C1324       C  0.95025662  0.59111297  0.16413582    -0.02900
C1325       C  0.95958265  0.56478696  0.18580802    -0.02900
C1326       C  0.98541388  0.57939229  0.21980573     0.07000
C1327       C  0.50549217  0.62199836  0.22825768    -0.03100
Br1328     Br  0.54561270  0.64597423  0.27012937    -0.01700
Br1329     Br  0.53423832  0.70702909  0.21121813    -0.01800
Br1330     Br  0.93728545  0.50923050  0.16749119    -0.01700
Br1331     Br  0.90898302  0.56856632  0.12303809    -0.01700
C1332       C  0.47658691  0.79359956  0.17127065    -0.02800
C1333       C  0.94945558  0.75189020  0.17841850     0.06900
C1334       C  0.92383083  0.74127312  0.21172960    -0.02900
C1335       C  0.92738673  0.77128191  0.23917571    -0.02900
C1336       C  0.95571947  0.81297357  0.23314939     0.07000
C1337       C  0.47940212  0.82377090  0.19826094    -0.03100
Br1338     Br  0.51543821  0.87977090  0.18604979    -0.01700
Br1339     Br  0.51202539  0.80990273  0.12573749    -0.01800
Br1340     Br  0.89549596  0.75406348  0.28683732    -0.03700
Br1341     Br  0.88270806  0.68530749  0.21947905    -0.01700
C1342       C  0.84563792  0.03711058  0.41205222    -0.02800
C1343       C  0.85346129  0.00407766  0.41396514     0.06900
C1344       C  0.83600628  0.97661105  0.44592164    -0.02900
C1345       C  0.80833876  0.97920872  0.47220161    -0.02900
C1346       C  0.79774490  0.00966852  0.46746159     0.07000
C1347       C  0.81736258  0.03919518  0.43798464    -0.03100
Br1348     Br  0.80512864  0.08275793  0.43328377    -0.01700
Br1349     Br  0.87272684  0.08011785  0.37414222    -0.01800
Br1350     Br  0.78285874  0.93898917  0.01343901    -0.01700
Br1351     Br  0.85199582  0.93722464  0.45708184    -0.01700
C1352       C  0.64529379  0.95925191  0.43563202    -0.02800
C1353       C  0.65866767  0.98815511  0.46692739     0.06900
C1354       C  0.63526011  0.00658392  0.47664429    -0.02900
C1355       C  0.59862230  0.99562487  0.45587300    -0.02900
C1356       C  0.58784034  0.97057853  0.42134271     0.07000
C1357       C  0.61140859  0.95187800  0.41206978    -0.03100
Br1358     Br  0.59484921  0.91129015  0.37054171    -0.01700
Br1359     Br  0.67139945  0.92699155  0.42645224    -0.01800
Br1360     Br  0.56279952  0.01326693  0.47724344    -0.01700
Br1361     Br  0.65488498  0.04958591  0.01601998    -0.01700
C1362       C  0.82824227  0.97015101  0.20336920    -0.02800
C1363       C  0.84922717  0.00018556  0.23328377     0.06900
C1364       C  0.84452763  0.03524339  0.23339223    -0.02900
C1365       C  0.81628822  0.03734732  0.20741871    -0.02900
C1366       C  0.79366849  0.00588983  0.17985901     0.07000
C1367       C  0.80001392  0.97242500  0.17765201    -0.03100
Br1368     Br  0.76751308  0.92782436  0.14133465    -0.01700
Br1369     Br  0.84076249  0.92799479  0.19334125    -0.01800
Br1370     Br  0.80729445  0.08295796  0.20998990    -0.01700
Br1371     Br  0.87602115  0.08132793  0.26832280    -0.01700
C1372       C  0.63019222  0.00162695  0.16530198    -0.02800
C1373       C  0.65566773  0.98590908  0.17666827     0.06900
C1374       C  0.64366699  0.95867268  0.20889028    -0.02900
C1375       C  0.60826181  0.94921672  0.23037758    -0.02900
C1376       C  0.58372620  0.96647981  0.22041658     0.07000
C1377       C  0.59351864  0.99036396  0.18573964    -0.03100
Br1378     Br  0.55624879  0.00609462  0.16402953    -0.01700
Br1379     Br  0.64702698  0.04195028  0.12429106    -0.01800
Br1380     Br  0.59112141  0.40791609  0.27028502    -0.01700
Br1381     Br  0.67420337  0.43198628  0.22358102    -0.01700
C1382       C  0.80931399  0.81666078  0.43746327    -0.02800
C1383       C  0.82504366  0.80398677  0.46881566     0.06900
C1384       C  0.86652672  0.82875010  0.47976008    -0.02900
C1385       C  0.89243487  0.86425898  0.45805942    -0.02900
C1386       C  0.87771796  0.87421423  0.42361587     0.07000
C1387       C  0.83535856  0.85089068  0.41485190    -0.03100
Br1388     Br  0.81069988  0.86806621  0.37509689    -0.01700
Br1389     Br  0.75109648  0.78895646  0.42661342    -0.01800
Br1390     Br  0.94762131  0.89894385  0.47680638    -0.01700
Br1391     Br  0.88905068  0.81323493  0.02313129    -0.01700
C1392       C  0.66779422  0.65357849  0.46601415    -0.02800
C1393       C  0.70890452  0.66534665  0.45902318     0.06900
C1394       C  0.71842125  0.65015823  0.42471252    -0.02900
C1395       C  0.68743850  0.62327016  0.39824652    -0.02900
C1396       C  0.64612564  0.61083566  0.40547401     0.07000
C1397       C  0.63674546  0.62595465  0.43999531    -0.03100
Br1398     Br  0.58156920  0.60845682  0.45347805    -0.01700
Br1399     Br  0.65414729  0.67928399  0.00848471    -0.01800
Br1400     Br  0.70260502  0.60616798  0.35036483    -0.01700
Br1401     Br  0.77413581  0.66692777  0.41265487    -0.01700
C1402       C  0.80368264  0.81119188  0.20835719    -0.02800
C1403       C  0.81870641  0.79804456  0.17665967     0.06900
C1404       C  0.86033970  0.82183496  0.16684700    -0.02900
C1405       C  0.88583982  0.85892859  0.18715040    -0.02900
C1406       C  0.87250408  0.86896300  0.22251674     0.07000
C1407       C  0.83064244  0.84461898  0.23246530    -0.03100
Br1408     Br  0.80761837  0.85941114  0.27585859    -0.01700
Br1409     Br  0.74548696  0.78591247  0.21713241    -0.01800
Br1410     Br  0.93687771  0.89683881  0.16316486    -0.01700
Br1411     Br  0.88415053  0.80207786  0.12843817    -0.01700
C1412       C  0.67918882  0.60657784  0.22411103    -0.02800
C1413       C  0.63945995  0.60190909  0.22557148     0.06900
C1414       C  0.62952278  0.62215219  0.19607337    -0.02900
C1415       C  0.65964253  0.65122768  0.17094058    -0.02900
C1416       C  0.70008969  0.65939490  0.17344038     0.07000
C1417       C  0.70949705  0.63642145  0.19956176    -0.03100
Br1418     Br  0.76479253  0.64703173  0.20215934    -0.01700
Br1419     Br  0.69289581  0.57098658  0.25261394    -0.01800
Br1420     Br  0.64597782  0.68205732  0.13483871    -0.01700
Br1421     Br  0.57400142  0.60603990  0.18486637    -0.01700
C1422       C  0.73323604  0.69391208  0.65127174     0.79200
N1423       N  0.73488117  0.69377666  0.61082166    -0.79100
C1424       C  0.76465307  0.72691055  0.59155176     0.81700
N1425       N  0.79180266  0.76016155  0.61300614    -0.79000
C1426       C  0.79052878  0.76052770  0.65328502     0.81800
N1427       N  0.76132704  0.72705975  0.67203523    -0.80700
C1428       C  0.74189080  0.69734358  0.98456951     0.79200
N1429       N  0.74014719  0.69543455  0.52494361    -0.79100
C1430       C  0.76706249  0.72786724  0.54760404     0.81700
N1431       N  0.79529946  0.76273377  0.52950754    -0.79000
C1432       C  0.79755048  0.76481356  0.98928994     0.81800
N1433       N  0.77091063  0.73191863  0.96732152    -0.80700
C1434       C  0.76069070  0.00604161  0.65613076     0.79200
N1435       N  0.76152243  0.00651500  0.61579638    -0.79100
C1436       C  0.72897614  0.00264891  0.59471721     0.81700
N1437       N  0.69501942  0.99680078  0.61432948    -0.79000
C1438       C  0.69399097  0.99639643  0.65470796     0.81800
N1439       N  0.72730170  0.00174680  0.67511088    -0.80700
C1440       C  0.76326176  0.00806474  0.99035957     0.79200
N1441       N  0.76316191  0.00824333  0.53077666    -0.79100
C1442       C  0.72973503  0.00326025  0.55081844     0.81700
N1443       N  0.69630879  0.99755566  0.53010995    -0.79000
C1444       C  0.69616153  0.99753474  0.98980790     0.81800
N1445       N  0.72988453  0.00309971  0.97031882    -0.80700
C1446       C  0.95054627  0.71919025  0.65403886     0.79200
N1447       N  0.95544657  0.69018495  0.67266257    -0.79100
C1448       C  0.96007628  0.66182546  0.65187533     0.81700
N1449       N  0.95972859  0.66271812  0.61158840    -0.79000
C1450       C  0.95428076  0.69116342  0.59226164     0.81800
N1451       N  0.94986227  0.71948651  0.61362861    -0.80700
C1452       C  0.95294431  0.72159759  0.98763420     0.79200
N1453       N  0.95927280  0.69384712  0.96797589    -0.79100
C1454       C  0.96452126  0.66582468  0.98799728     0.81700
N1455       N  0.96265491  0.66526533  0.52819991    -0.79000
C1456       C  0.95542472  0.69226800  0.54840468     0.81800
N1457       N  0.95112795  0.72086924  0.52797774    -0.80700
O1458       O  0.90592849  0.52591018  0.77829322    -0.89200
C1459       C  0.61401713  0.58394904  0.87577881     1.10900
O1460       O  0.94457941  0.98131073  0.82177953    -1.37000
O1461       O  0.58562881  0.59029635  0.77142767    -0.90600
O1462       O  0.86292415  0.95883213  0.77813503    -0.91300
O1463       O  0.93520623  0.93203404  0.73874159    -0.80100
O1464       O  0.99488975  0.55892584  0.78307219    -1.02200
C1465       C  0.55077176  0.96211410  0.74826510     1.20900
O1466       O  0.97595527  0.92812984  0.82170620    -1.37100
Mn1467     Mn  0.98437661  0.97515615  0.86420446     1.82100
O1468       O  0.52078267  0.96560772  0.73758418    -0.79200
O1469       O  0.61121580  0.54867057  0.77419264    -0.88600
C1470       C  0.55428955  0.96577664  0.89356321     1.12000
C1471       C  0.60993137  0.57851823  0.75862696     1.06700
O1472       O  0.93960429  0.93660961  0.90547770    -0.80100
O1473       O  0.52912468  0.51269171  0.82024766    -1.33800
O1474       O  0.89790958  0.90200816  0.85987906    -0.99400
C1475       C  0.96114335  0.84418629  0.76410888     1.05400
Mn1476     Mn  0.58229291  0.50641265  0.82004585     1.48600
O1477       O  0.92961082  0.84399368  0.77756599    -0.88600
Mn1478     Mn  0.88293807  0.93320857  0.82301006     1.49600
O1479       O  0.90903813  0.52857912  0.86794053    -0.92400
C1480       C  0.99033688  0.55106601  0.74766446     1.18600
C1481       C  0.87778202  0.99747524  0.88198320     1.10700
Mn1482     Mn  0.98199140  0.97281353  0.77819069     1.81000
O1483       O  0.55727916  0.96172507  0.85807505    -0.97600
Mn1484     Mn  0.95110406  0.54091478  0.82174918     1.49300
C1485       C  0.87435561  0.99444901  0.76481982     1.07200
Mn1486     Mn  0.52425265  0.91482221  0.82176618     1.49900
C1487       C  0.96243958  0.84638645  0.88113011     1.10100
O1488       O  0.89568891  0.90008919  0.78557696    -1.03400
O1489       O  0.61343642  0.55166469  0.86381905    -0.93000
C1490       C  0.90176811  0.90282633  0.74996608     1.21400
O1491       O  0.55519570  0.95969256  0.78379502    -1.03800
O1492       O  0.58982275  0.59515979  0.86188138    -0.91200
O1493       O  0.49813300  0.87033252  0.86767313    -0.90800
O1494       O  0.86570192  0.96142475  0.86858854    -0.90800
Mn1495     Mn  0.54246314  0.57425967  0.81849623     1.47900
O1496       O  0.52482872  0.96994071  0.90437976    -0.79300
C1497       C  0.90582502  0.90658234  0.89527870     1.14500
O1498       O  0.98655581  0.51736249  0.73708551    -0.78000
O1499       O  0.99233752  0.52232642  0.90375385    -0.77600
Mn1500     Mn  0.91652415  0.87505048  0.82244313     1.51100
O1501       O  0.49693346  0.86862766  0.77731508    -0.90000
O1502       O  0.99844282  0.56218305  0.85739830    -0.97500
O1503       O  0.93113062  0.84608767  0.86709189    -0.92500
C1504       C  0.99645167  0.55588379  0.89295124     1.12200
C1505       C  0.50484350  0.65378463  0.93614528    -0.02800
C1506       C  0.97507907  0.63810789  0.96609504     0.06900
C1507       C  0.95650550  0.59632619  0.97533661    -0.02900
C1508       C  0.96755687  0.57064287  0.95489940    -0.02900
C1509       C  0.99276898  0.58490922  0.92105809     0.07000
C1510       C  0.51219899  0.62723147  0.91263840    -0.03100
Br1511     Br  0.55265239  0.65084023  0.87183022    -0.01700
Br1512     Br  0.53803205  0.71216248  0.92886913    -0.01800
Br1513     Br  0.94938842  0.51701573  0.97555831    -0.01700
Br1514     Br  0.91320382  0.57294808  0.01362498    -0.01700
C1515       C  0.48813852  0.82459672  0.94108206    -0.02800
C1516       C  0.95666148  0.81610627  0.91322692     0.06900
C1517       C  0.92040615  0.77728177  0.91556189    -0.02900
C1518       C  0.91905747  0.74675656  0.94057937    -0.02900
C1519       C  0.95251726  0.75470400  0.96481489     0.07000
C1520       C  0.48693258  0.79382038  0.96521253    -0.03100
Br1521     Br  0.53383399  0.80440863  0.99706900    -0.01700
Br1522     Br  0.52945989  0.87925005  0.95254063    -0.01800
Br1523     Br  0.87193820  0.69306872  0.94133892    -0.01700
Br1524     Br  0.87120815  0.76488392  0.88686050    -0.01700
C1525       C  0.49918914  0.64859945  0.70411257    -0.02800
C1526       C  0.96968643  0.63322062  0.67348430     0.06900
C1527       C  0.95024824  0.59108402  0.66410105    -0.02900
C1528       C  0.95960890  0.56478979  0.68578467    -0.02900
C1529       C  0.98543783  0.57942599  0.71978318     0.07000
C1530       C  0.50553306  0.62198345  0.72816411    -0.03100
Br1531     Br  0.54566075  0.64601359  0.77002174    -0.01700
Br1532     Br  0.53425654  0.70698789  0.71101684    -0.01800
Br1533     Br  0.93739098  0.50924484  0.66745974    -0.01700
Br1534     Br  0.90899574  0.56849475  0.62298602    -0.01700
C1535       C  0.47671980  0.79347771  0.67135080    -0.02800
C1536       C  0.94934576  0.75182037  0.67839777     0.06900
C1537       C  0.92379791  0.74121642  0.71177157    -0.02900
C1538       C  0.92735336  0.77124405  0.73919326    -0.02900
C1539       C  0.95564541  0.81293459  0.73311631     0.07000
C1540       C  0.47950776  0.82367551  0.69828762    -0.03100
Br1541     Br  0.51562330  0.87965503  0.68606627    -0.01700
Br1542     Br  0.51243082  0.80968561  0.62602853    -0.01800
Br1543     Br  0.89550436  0.75406650  0.78688673    -0.03700
Br1544     Br  0.88279477  0.68523970  0.71967283    -0.01700
C1545       C  0.84557324  0.03702360  0.91212216    -0.02800
C1546       C  0.85336353  0.00396487  0.91398539     0.06900
C1547       C  0.83586130  0.97644763  0.94589810    -0.02900
C1548       C  0.80819050  0.97903061  0.97218228    -0.02900
C1549       C  0.79762831  0.00951531  0.96748262     0.07000
C1550       C  0.81728545  0.03908754  0.93805403    -0.03100
Br1551     Br  0.80509237  0.08268719  0.93343122    -0.01700
Br1552     Br  0.87272666  0.08009784  0.87428978    -0.01800
Br1553     Br  0.78304528  0.93920701  0.51349654    -0.01700
Br1554     Br  0.85178299  0.93700077  0.95699669    -0.01700
C1555       C  0.64515515  0.95906636  0.93567012    -0.02800
C1556       C  0.65854766  0.98798429  0.96695386     0.06900
C1557       C  0.63516858  0.00644894  0.97664901    -0.02900
C1558       C  0.59854553  0.99551332  0.95586435    -0.02900
C1559       C  0.58777810  0.97049068  0.92131996     0.07000
C1560       C  0.61130527  0.95174003  0.91207524    -0.03100
Br1561     Br  0.59470879  0.91113074  0.87056232    -0.01700
Br1562     Br  0.67117383  0.92671557  0.92656400    -0.01800
Br1563     Br  0.56269229  0.01309823  0.97726832    -0.01700
Br1564     Br  0.65496157  0.04970774  0.51602936    -0.01700
C1565       C  0.82824409  0.97012767  0.70335160    -0.02800
C1566       C  0.84919173  0.00014065  0.73329290     0.06900
C1567       C  0.84449481  0.03519922  0.73340603    -0.02900
C1568       C  0.81630221  0.03732926  0.70739135    -0.02900
C1569       C  0.79369325  0.00587778  0.67982615     0.07000
C1570       C  0.80003755  0.97241404  0.67761633    -0.03100
Br1571     Br  0.76757866  0.92784359  0.64125491    -0.01700
Br1572     Br  0.84078397  0.92798715  0.69331641    -0.01800
Br1573     Br  0.80737119  0.08297714  0.70989268    -0.01700
Br1574     Br  0.87590304  0.08123466  0.76842040    -0.01700
C1575       C  0.63022181  0.00161322  0.66527724    -0.02800
C1576       C  0.65568045  0.98587224  0.67663547     0.06900
C1577       C  0.64367398  0.95864198  0.70886472    -0.02900
C1578       C  0.60826636  0.94919155  0.73034786    -0.02900
C1579       C  0.58374542  0.96647417  0.72039212     0.07000
C1580       C  0.59356621  0.99039082  0.68573479    -0.03100
Br1581     Br  0.55638757  0.00628548  0.66411446    -0.01700
Br1582     Br  0.64705934  0.04191452  0.62424390    -0.01800
Br1583     Br  0.59131439  0.40810998  0.77040376    -0.01700
Br1584     Br  0.67456964  0.43244251  0.72394443    -0.01700
C1585       C  0.80934194  0.81654204  0.93744198    -0.02800
C1586       C  0.82509131  0.80391874  0.96881950     0.06900
C1587       C  0.86656515  0.82872244  0.97977111    -0.02900
C1588       C  0.89245142  0.86422331  0.95805137    -0.02900
C1589       C  0.87771632  0.87413976  0.92359490     0.07000
C1590       C  0.83536310  0.85076768  0.91481750    -0.03100
Br1591     Br  0.81067203  0.86786779  0.87502310    -0.01700
Br1592     Br  0.75112390  0.78877693  0.92657511    -0.01800
Br1593     Br  0.94763615  0.89894236  0.97678524    -0.01700
Br1594     Br  0.88899997  0.81318971  0.52307273    -0.01700
C1595       C  0.66788450  0.65372988  0.96594184    -0.02800
C1596       C  0.70896283  0.66532188  0.95905084     0.06900
C1597       C  0.71845265  0.65000027  0.92482363    -0.02900
C1598       C  0.68746569  0.62311681  0.89835952    -0.02900
C1599       C  0.64617303  0.61085237  0.90548929     0.07000
C1600       C  0.63682520  0.62610946  0.93993364    -0.03100
Br1601     Br  0.58167750  0.60875397  0.95338136    -0.01700
Br1602     Br  0.65396807  0.67886740  0.50873630    -0.01800
Br1603     Br  0.70262175  0.60575526  0.85063587    -0.01700
Br1604     Br  0.77414379  0.66661666  0.91285473    -0.01700
C1605       C  0.80369460  0.81108735  0.70837512    -0.02800
C1606       C  0.81874011  0.79798995  0.67665249     0.06900
C1607       C  0.86035842  0.82184511  0.66680950    -0.02900
C1608       C  0.88582371  0.85894737  0.68711163    -0.02900
C1609       C  0.87247625  0.86894108  0.72249273     0.07000
C1610       C  0.83062427  0.84455893  0.73245101    -0.03100
Br1611     Br  0.80756378  0.85938319  0.77578830    -0.01700
Br1612     Br  0.74550207  0.78565780  0.71725653    -0.01800
Br1613     Br  0.93680688  0.89694097  0.66308581    -0.01700
Br1614     Br  0.88420712  0.80216867  0.62836106    -0.01700
C1615       C  0.67924943  0.60659474  0.72415594    -0.02800
C1616       C  0.63951062  0.60190019  0.72556072     0.06900
C1617       C  0.62957407  0.62210019  0.69601658    -0.02900
C1618       C  0.65970092  0.65115299  0.67087250    -0.02900
C1619       C  0.70015645  0.65934683  0.67342034     0.07000
C1620       C  0.70957040  0.63643661  0.69962090    -0.03100
Br1621     Br  0.76489850  0.64715946  0.70239535    -0.01700
Br1622     Br  0.69295664  0.57103757  0.75271979    -0.01800
Br1623     Br  0.64604051  0.68195194  0.63472567    -0.01700
Br1624     Br  0.57404994  0.60596700  0.68478296    -0.01700
loop_ 
_geom_bond_atom_site_label_1 
_geom_bond_atom_site_label_2 
_geom_bond_distance 
_geom_bond_site_symmetry_2 
_ccdc_geom_bond_type 
C1            N2   1.366       .  A
C1            N6   1.357       .  A
C1          C198   1.492       .  S
N2            C3   1.369       .  A
C3            N4   1.360       .  A
C3            C9   1.485       .  S
N4            C5   1.360       .  A
C5            N6   1.359       .  A
C5          C185   1.494       .  S
C7           N12   1.356       .  A
C7          N211   1.365       .  A
C7          C175   1.493       .  S
N8            C9   1.363       .  A
N8          C210   1.365   1_554  A
C9           N10   1.366       .  A
N10         C214   1.361   1_554  A
C11          N12   1.357       .  A
C11         N213   1.361       .  A
C11         C165   1.495       .  S
C13          N14   1.361       .  A
C13          N18   1.355       .  A
C13         C148   1.483       .  S
N14          C15   1.363       .  A
C15          N16   1.365       .  A
C15          C21   1.481       .  S
N16          C17   1.363       .  A
C17          N18   1.357       .  A
C17         C155   1.498       .  S
C19          N24   1.358       .  A
C19         N223   1.364       .  A
C19         C128   1.492       .  S
N20          C21   1.365       .  A
N20         C222   1.364   1_554  A
C21          N22   1.362       .  A
N22         C226   1.360   1_554  A
C23          N24   1.359       .  A
C23         N225   1.360       .  A
C23         C135   1.492       .  S
C25          N26   1.359       .  A
C25          N30   1.363       .  A
C25         C115   1.497       .  S
N26          C27   1.360       .  A
C27          N28   1.360       .  A
C27         C105   1.496       .  S
N28          C29   1.363       .  A
C29          N30   1.365       .  A
C29          C35   1.480       .  S
C31          N32   1.356       .  A
C31         N239   1.364       .  A
C31          C98   1.483       .  S
N32          C33   1.357       .  A
C33         N237   1.359       .  A
C33          C85   1.488       .  S
N34          C35   1.361       .  A
N34         C236   1.358   1_554  A
C35          N36   1.364       .  A
N36         C234   1.364   1_554  A
O37         Mn63   2.096       .  S
O37         C470   1.270   1_545  A
C38         C178   1.503       .  S
C38          O71   1.276       .  A
C38          O68   1.273       .  A
O39         Mn46   2.171       .  S
O39         Mn57   2.126       .  S
O39         Mn61   2.175       .  S
O39        Mn469   2.141       .  S
O40         Mn74   2.146       .  S
O40          C50   1.281       .  A
O41         Mn57   2.135       .  S
O41          C64   1.279       .  A
O42         Mn61   2.123       .  S
O42          C69   1.257       .  A
O43         Mn63   1.954       .  S
O43        Mn886   1.984       .  S
O43          C59   1.219       .  S
C44         C158   1.508       .  S
C44          O47   1.259       .  A
C44          O70   1.220       .  S
O45         Mn46   2.170       .  S
O45         Mn79   2.141       .  S
O45         Mn61   2.174       .  S
O45        Mn877   2.124       .  S
Mn46         O51   2.127       .  S
Mn46        O887   2.124       .  S
Mn46        O484   2.113       .  S
Mn46       O1270   2.174       .  S
O47        Mn873   2.124   1_455  S
O48         Mn55   2.111       .  S
O48          C50   1.272       .  A
C49         C138   1.509       .  S
C49          O75   1.257       .  A
C49          O62   1.218       .  S
C50         C195   1.523       .  S
O51          C76   1.258       .  A
O52         Mn55   2.141       .  S
O52         Mn74   2.125       .  S
O52       Mn1264   2.174   1_445  S
O52       Mn1279   2.173   1_445  S
O53         Mn57   1.987       .  S
O53         Mn79   1.958       .  S
O53          C76   1.219       .  S
C54         C118   1.505       .  S
C54          O56   1.275       .  A
C54         O892   1.275       .  A
Mn55         O68   2.104       .  S
Mn55        O476   1.951   1_545  S
Mn55        O468   1.960   1_545  S
O56         Mn79   2.115       .  S
Mn57         O73   2.145       .  S
Mn57         O67   1.995       .  S
O58         Mn63   2.114       .  S
O58         C466   1.274   1_545  A
C59         C108   1.512       .  S
C59          O77   1.258       .  A
C60         C125   1.520       .  S
C60          O73   1.280       .  A
C60         O464   1.274       .  A
Mn61        O859   2.124       .  S
Mn61        O483   2.132       .  S
Mn61       O1270   2.173       .  S
O62         Mn65   1.986       .  S
O62        Mn461   1.960       .  S
Mn63        O445   2.141   1_545  S
Mn63         O81   1.957       .  S
C64         C145   1.512       .  S
C64         O443   1.270       .  A
Mn65         O72   2.146   1_455  S
Mn65         O80   2.123   1_455  S
Mn65        O857   2.125   1_455  S
Mn65         O70   1.990       .  S
C66          C95   1.519       .  S
C66          O82   1.269       .  A
C66         O884   1.281       .  A
O67         Mn79   1.956       .  S
O67          C69   1.219       .  S
C69         C188   1.511       .  S
O70        Mn461   1.951       .  S
O71         Mn74   2.127       .  S
O72         C878   1.281       .  A
Mn74        O855   1.984   1_455  S
Mn74        O893   1.993   1_455  S
O75        Mn858   2.124   1_455  S
C76         C168   1.508       .  S
O77        Mn467   2.131   1_545  S
O78        Mn452   2.114   1_545  S
O78          C83   1.257       .  A
Mn79         O82   2.098       .  S
O80         C866   1.275       .  A
O81        Mn886   1.993       .  S
O81          C83   1.220       .  S
C83          C88   1.503       .  S
C84          C89   1.408       .  A
C84         C897   1.411   1_455  A
C84         Br91   1.939       .  S
C85          C86   1.411       .  A
C85         C896   1.411       .  A
C86          C87   1.411       .  A
C86         Br93   1.930       .  S
C87          C88   1.418       .  A
C87         Br92   1.926       .  S
C88         C901   1.421       .  A
C89         C900   1.421   1_455  A
C89         Br90   1.926       .  S
C94          C99   1.409       .  A
C94         C907   1.418       .  A
C94        Br101   1.904   1_655  S
C95          C96   1.428       .  A
C95         C906   1.418       .  A
C96          C97   1.417       .  A
C96        Br103   1.932       .  S
C97          C98   1.404       .  A
C97        Br102   1.921       .  S
C98         C911   1.400       .  A
C99         C910   1.400       .  A
C99        Br100   1.933   1_655  S
C104        C109   1.409   1_655  A
C104        C917   1.409       .  A
C104       Br111   1.938   1_655  S
C105        C106   1.415       .  A
C105        C916   1.409       .  A
C106        C107   1.419       .  A
C106       Br113   1.929       .  S
C107        C108   1.420       .  A
C107       Br112   1.927       .  S
C108        C921   1.422       .  A
C109        C920   1.422   1_455  A
C109       Br110   1.926       .  S
C114        C119   1.415       .  A
C114        C927   1.412       .  A
C114       Br121   1.935   1_655  S
C115        C116   1.412       .  A
C115        C926   1.412       .  A
C116        C117   1.412       .  A
C116       Br123   1.923       .  S
C117        C118   1.413       .  A
C117       Br122   1.927       .  S
C118        C931   1.417       .  A
C119        C930   1.417       .  A
C119       Br120   1.911   1_655  S
C124        C125   1.423       .  A
C124        C129   1.417       .  A
C124       Br131   1.927       .  S
C125        C126   1.420       .  A
C126        C127   1.414       .  A
C126       Br133   1.907       .  S
C127        C128   1.407       .  A
C127       Br335   1.936       .  S
C128        C129   1.409       .  A
C129       Br130   1.930       .  S
Br132       C330   1.936   1_554  S
C134        C135   1.410       .  A
C134        C139   1.409       .  A
C134       Br141   1.940       .  S
C135        C136   1.412       .  A
C136        C137   1.414       .  A
C136       Br346   1.929       .  S
C137        C138   1.418       .  A
C137       Br142   1.925       .  S
C138        C139   1.422       .  A
C139       Br140   1.926       .  S
Br143       C339   1.929   1_554  S
C144        C145   1.419       .  A
C144        C149   1.410       .  A
C144       Br151   1.905       .  S
C145        C146   1.424       .  A
C146        C147   1.413       .  A
C146       Br153   1.931       .  S
C147        C148   1.404       .  A
C147       Br152   1.920       .  S
C148        C149   1.403       .  A
C149       Br150   1.934       .  S
C154        C155   1.416       .  A
C154        C159   1.416       .  A
C154       Br161   1.929       .  S
C155        C156   1.416       .  A
C156        C157   1.408       .  A
C156       Br569   1.942       .  S
C157        C158   1.418       .  A
C157       Br568   1.925       .  S
C158        C159   1.418       .  A
C159       Br160   1.929       .  S
Br162       C563   1.925       .  S
Br163       C562   1.942       .  S
C164        C165   1.411       .  A
C164        C169   1.407       .  A
C164       Br171   1.942       .  S
C165        C166   1.414       .  A
C166        C167   1.418       .  A
C166       Br376   1.926       .  S
C167        C168   1.419       .  A
C167       Br172   1.930       .  S
C168        C169   1.420       .  A
C169       Br170   1.924       .  S
Br173       C369   1.926   1_554  S
C174        C175   1.410       .  A
C174        C179   1.412       .  A
C174       Br384   1.936       .  S
C175        C176   1.413       .  A
C176        C177   1.412       .  A
C176       Br183   1.921       .  S
C177        C178   1.413       .  A
C177       Br182   1.928       .  S
C178        C179   1.415       .  A
C179       Br180   1.908       .  S
Br181       C377   1.936   1_554  S
C184        C185   1.411       .  A
C184        C189   1.410       .  A
C184       Br191   1.940       .  S
C185        C186   1.413       .  A
C186        C187   1.413       .  A
C186       Br193   1.927       .  S
C187        C188   1.418       .  A
C187       Br192   1.926       .  S
C188        C189   1.423       .  A
C189       Br190   1.923       .  S
C194        C195   1.425       .  A
C194        C199   1.417       .  A
C194       Br201   1.930       .  S
C195        C196   1.420       .  A
C196        C197   1.414       .  A
C196       Br203   1.909       .  S
C197        C198   1.405       .  A
C197       Br202   1.932       .  S
C198        C199   1.407       .  A
C199       Br200   1.926       .  S
C204        N205   1.366       .  A
C204        N209   1.357       .  A
C204        C401   1.492       .  S
N205        C206   1.369       .  A
C206        N207   1.360       .  A
C206        C212   1.485       .  S
N207        C208   1.360       .  A
C208        N209   1.359       .  A
C208        C388   1.495       .  S
C210        N215   1.356       .  A
C210        C378   1.493       .  S
N211        C212   1.363       .  A
C212        N213   1.366       .  A
C214        N215   1.357       .  A
C214        C368   1.496       .  S
C216        N217   1.361       .  A
C216        N221   1.355       .  A
C216        C351   1.484       .  S
N217        C218   1.363       .  A
C218        N219   1.365       .  A
C218        C224   1.481       .  S
N219        C220   1.362       .  A
C220        N221   1.357       .  A
C220        C358   1.498       .  S
C222        N227   1.358       .  A
C222        C331   1.493       .  S
N223        C224   1.365       .  A
C224        N225   1.362       .  A
C226        N227   1.359       .  A
C226        C338   1.492       .  S
C228        N229   1.359       .  A
C228        N233   1.363       .  A
C228        C318   1.496       .  S
N229        C230   1.360       .  A
C230        N231   1.360       .  A
C230        C308   1.497       .  S
N231        C232   1.363       .  A
C232        N233   1.365       .  A
C232        C238   1.480       .  S
C234        N235   1.356       .  A
C234        C301   1.483       .  S
N235        C236   1.357       .  A
C236        C288   1.488       .  S
N237        C238   1.361       .  A
C238        N239   1.364       .  A
O240       Mn266   2.096       .  S
O240        C673   1.270   1_545  A
C241        C381   1.503       .  S
C241        O274   1.275       .  A
C241        O271   1.273       .  A
O242       Mn249   2.171       .  S
O242       Mn260   2.126       .  S
O242       Mn264   2.175       .  S
O242       Mn672   2.141       .  S
O243       Mn277   2.146       .  S
O243        C253   1.281       .  A
O244       Mn260   2.134       .  S
O244        C267   1.279       .  A
O245       Mn264   2.123       .  S
O245        C272   1.257       .  A
O246      Mn1089   1.984       .  S
O246       Mn266   1.954       .  S
O246        C262   1.219       .  S
C247        C361   1.508       .  S
C247        O250   1.258       .  A
C247        O273   1.220       .  S
O248      Mn1080   2.125       .  S
O248       Mn249   2.170       .  S
O248       Mn282   2.141       .  S
O248       Mn264   2.174       .  S
Mn249      O1090   2.124       .  S
Mn249       O254   2.127       .  S
Mn249       O687   2.113       .  S
Mn249      O1473   2.174       .  S
O250      Mn1076   2.124   1_455  S
O251       Mn258   2.111       .  S
O251        C253   1.272       .  A
C252        C341   1.509       .  S
C252        O278   1.257       .  A
C252        O265   1.218       .  S
C253        C398   1.523       .  S
O254        C279   1.258       .  A
O255      Mn1467   2.174   1_445  S
O255       Mn258   2.142       .  S
O255       Mn277   2.124       .  S
O255      Mn1482   2.173   1_445  S
O256       Mn260   1.987       .  S
O256       Mn282   1.958       .  S
O256        C279   1.219       .  S
C257        C321   1.505       .  S
C257       O1095   1.275       .  A
C257        O259   1.275       .  A
Mn258       O271   2.105       .  S
Mn258       O679   1.951   1_545  S
Mn258       O671   1.960   1_545  S
O259       Mn282   2.115       .  S
Mn260       O276   2.146       .  S
Mn260       O270   1.995       .  S
O261       Mn266   2.114       .  S
O261        C669   1.274   1_545  A
C262        C311   1.512       .  S
C262        O280   1.258       .  A
C263        C328   1.519       .  S
C263        O667   1.274       .  A
C263        O276   1.280       .  A
Mn264      O1062   2.124       .  S
Mn264       O686   2.131       .  S
Mn264      O1473   2.173       .  S
O265       Mn664   1.960       .  S
O265       Mn268   1.987       .  S
Mn266       O648   2.141   1_545  S
Mn266       O284   1.958       .  S
C267        C348   1.512       .  S
C267        O646   1.270       .  A
Mn268       O275   2.146   1_455  S
Mn268       O283   2.123   1_455  S
Mn268      O1060   2.124   1_455  S
Mn268       O273   1.989       .  S
C269        C298   1.518       .  S
C269       O1087   1.281       .  A
C269        O285   1.269       .  A
O270       Mn282   1.956       .  S
O270        C272   1.219       .  S
C272        C391   1.511       .  S
O273       Mn664   1.951       .  S
O274       Mn277   2.127       .  S
O275       C1081   1.281       .  A
Mn277      O1058   1.984   1_455  S
Mn277      O1096   1.993   1_455  S
O278      Mn1061   2.124   1_455  S
C279        C371   1.508       .  S
O280       Mn670   2.131   1_545  S
O281       Mn655   2.114   1_545  S
O281        C286   1.257       .  A
Mn282       O285   2.098       .  S
O283       C1069   1.275       .  A
O284      Mn1089   1.993       .  S
O284        C286   1.220       .  S
C286        C291   1.503       .  S
C287       C1100   1.410   1_455  A
C287        C292   1.408       .  A
C287       Br294   1.939       .  S
C288       C1099   1.410       .  A
C288        C289   1.411       .  A
C289        C290   1.411       .  A
C289       Br296   1.930   1_556  S
C290        C291   1.418       .  A
C290       Br295   1.926       .  S
C291       C1104   1.421       .  A
C292       C1103   1.421   1_455  A
C292       Br293   1.926       .  S
C297       C1110   1.418       .  A
C297        C302   1.409       .  A
C297       Br304   1.904   1_655  S
C298       C1109   1.418       .  A
C298        C299   1.427       .  A
C299        C300   1.417       .  A
C299       Br306   1.932       .  S
C300        C301   1.404       .  A
C300       Br305   1.922       .  S
C301       C1114   1.400       .  A
C302       C1113   1.400       .  A
C302       Br303   1.933   1_655  S
C307       C1120   1.409       .  A
C307        C312   1.409   1_655  A
C307       Br314   1.938   1_655  S
C308       C1119   1.409       .  A
C308        C309   1.415       .  A
C309        C310   1.419       .  A
C309       Br316   1.929       .  S
C310        C311   1.420       .  A
C310       Br315   1.927       .  S
C311       C1124   1.422       .  A
C312       C1123   1.422   1_455  A
C312       Br313   1.926       .  S
C317       C1130   1.412       .  A
C317        C322   1.415       .  A
C317       Br324   1.935   1_655  S
C318       C1129   1.412       .  A
C318        C319   1.411       .  A
C319        C320   1.412       .  A
C319       Br326   1.922       .  S
C320        C321   1.414       .  A
C320       Br325   1.927       .  S
C321       C1134   1.417       .  A
C322       C1133   1.417       .  A
C322       Br323   1.911   1_655  S
C327        C328   1.423       .  A
C327        C332   1.417       .  A
C327       Br334   1.927       .  S
C328        C329   1.420       .  A
C329        C330   1.414       .  A
C329       Br336   1.907       .  S
C330        C331   1.407       .  A
C331        C332   1.409       .  A
C332       Br333   1.930       .  S
C337        C338   1.410       .  A
C337        C342   1.409       .  A
C337       Br344   1.940       .  S
C338        C339   1.412       .  A
C339        C340   1.414       .  A
C340        C341   1.418       .  A
C340       Br345   1.925       .  S
C341        C342   1.422       .  A
C342       Br343   1.926       .  S
C347        C348   1.419       .  A
C347        C352   1.410       .  A
C347       Br354   1.905       .  S
C348        C349   1.424       .  A
C349        C350   1.413       .  A
C349       Br356   1.931       .  S
C350        C351   1.404       .  A
C350       Br355   1.920       .  S
C351        C352   1.403       .  A
C352       Br353   1.934       .  S
C357        C358   1.416       .  A
C357        C362   1.416       .  A
C357       Br364   1.929       .  S
C358        C359   1.416       .  A
C359        C360   1.408       .  A
C359       Br772   1.942       .  S
C360        C361   1.418       .  A
C360       Br771   1.925       .  S
C361        C362   1.417       .  A
C362       Br363   1.929       .  S
Br365       C766   1.925       .  S
Br366       C765   1.942       .  S
C367        C368   1.411       .  A
C367        C372   1.407       .  A
C367       Br374   1.942       .  S
C368        C369   1.415       .  A
C369        C370   1.418       .  A
C370        C371   1.419       .  A
C370       Br375   1.930       .  S
C371        C372   1.420       .  A
C372       Br373   1.924       .  S
C377        C378   1.410       .  A
C377        C382   1.412       .  A
C378        C379   1.413       .  A
C379        C380   1.412       .  A
C379       Br386   1.921       .  S
C380        C381   1.413       .  A
C380       Br385   1.928       .  S
C381        C382   1.415       .  A
C382       Br383   1.908       .  S
C387        C388   1.411       .  A
C387        C392   1.410       .  A
C387       Br394   1.940       .  S
C388        C389   1.413       .  A
C389        C390   1.413       .  A
C389       Br396   1.927       .  S
C390        C391   1.418       .  A
C390       Br395   1.926       .  S
C391        C392   1.423       .  A
C392       Br393   1.923       .  S
C397        C398   1.425       .  A
C397        C402   1.417       .  A
C397       Br404   1.930       .  S
C398        C399   1.420       .  A
C399        C400   1.414       .  A
C399       Br406   1.909       .  S
C400        C401   1.405       .  A
C400       Br405   1.932       .  S
C401        C402   1.407       .  A
C402       Br403   1.926       .  S
C407        N408   1.366       .  A
C407        N412   1.357       .  A
C407        C604   1.492       .  S
N408        C409   1.369       .  A
C409        N410   1.360       .  A
C409        C415   1.485       .  S
N410        C411   1.360       .  A
C411        N412   1.359       .  A
C411        C591   1.495       .  S
C413        N617   1.365       .  A
C413        N418   1.357       .  A
C413        C581   1.493       .  S
N414        C616   1.365   1_554  A
N414        C415   1.363       .  A
C415        N416   1.366       .  A
N416        C620   1.361   1_554  A
C417        N619   1.361       .  A
C417        N418   1.357       .  A
C417        C571   1.495       .  S
C419        N420   1.361       .  A
C419        N424   1.355       .  A
C419        C554   1.483       .  S
N420        C421   1.363       .  A
C421        N422   1.365   1_545  A
C421        C427   1.481       .  S
N422        C423   1.363       .  A
C423        N424   1.357   1_565  A
C423        C561   1.498       .  S
C425        N629   1.364       .  A
C425        N430   1.358       .  A
C425        C534   1.493       .  S
N426        C628   1.364   1_554  A
N426        C427   1.365       .  A
C427        N428   1.362   1_545  A
N428        C632   1.360   1_554  A
C429        N631   1.360       .  A
C429        N430   1.359   1_565  A
C429        C541   1.492       .  S
C431        N432   1.359       .  A
C431        N436   1.363       .  A
C431        C521   1.497       .  S
N432        C433   1.360       .  A
C433        N434   1.360       .  A
C433        C511   1.497       .  S
N434        C435   1.363       .  A
C435        N436   1.365       .  A
C435        C441   1.480       .  S
C437        N438   1.356       .  A
C437        N645   1.364       .  A
C437        C504   1.483       .  S
N438        C439   1.357       .  A
C439        N643   1.358       .  A
C439        C491   1.488       .  S
N440        C642   1.358   1_554  A
N440        C441   1.361       .  A
C441        N442   1.364       .  A
N442        C640   1.364   1_554  A
O443       Mn469   2.096       .  S
C444        C584   1.502       .  S
C444        O477   1.275       .  A
C444        O474   1.273       .  A
O445       Mn452   2.171       .  S
O445       Mn463   2.126       .  S
O445       Mn467   2.175       .  S
O446       Mn480   2.146       .  S
O446        C456   1.281       .  A
O447       Mn463   2.135       .  S
O447        C470   1.279       .  A
O448       Mn467   2.123       .  S
O448        C475   1.257       .  A
O449      Mn1292   1.984       .  S
O449       Mn469   1.954       .  S
O449        C465   1.219       .  S
C450        C564   1.508       .  S
C450        O453   1.258       .  A
C450        O476   1.220       .  S
O451      Mn1283   2.125       .  S
O451       Mn452   2.170       .  S
O451       Mn485   2.141       .  S
O451       Mn467   2.174       .  S
Mn452      O1293   2.124       .  S
Mn452       O457   2.127       .  S
Mn452       O864   2.174   1_565  S
O453      Mn1279   2.124   1_455  S
O454       Mn461   2.111       .  S
O454        C456   1.272       .  A
C455        C544   1.509       .  S
C455        O481   1.257       .  A
C455        O468   1.218       .  S
C456        C601   1.523       .  S
O457        C482   1.258       .  A
O458       Mn858   2.174   1_455  S
O458       Mn461   2.141       .  S
O458       Mn480   2.124       .  S
O458       Mn873   2.173   1_455  S
O459       Mn463   1.988       .  S
O459       Mn485   1.958       .  S
O459        C482   1.219       .  S
C460        C524   1.505       .  S
C460       O1298   1.275       .  A
C460        O462   1.275       .  A
Mn461       O474   2.104       .  S
O462       Mn485   2.115       .  S
Mn463       O479   2.145       .  S
Mn463       O473   1.995       .  S
O464       Mn469   2.114       .  S
C465        C514   1.512       .  S
C465        O483   1.258       .  A
C466        C531   1.520   1_565  S
C466        O479   1.280       .  A
Mn467      O1265   2.124       .  S
Mn467       O864   2.173   1_565  S
O468       Mn471   1.987       .  S
Mn469       O487   1.958       .  S
C470        C551   1.512   1_565  S
Mn471       O478   2.146   1_455  S
Mn471       O486   2.123   1_455  S
Mn471      O1263   2.125   1_455  S
Mn471       O476   1.990       .  S
C472        C501   1.519       .  S
C472       O1290   1.281       .  A
C472        O488   1.269       .  A
O473       Mn485   1.956       .  S
O473        C475   1.219       .  S
C475        C594   1.511       .  S
O477       Mn480   2.127       .  S
O478       C1284   1.281       .  A
Mn480      O1261   1.984   1_455  S
Mn480      O1299   1.993   1_455  S
O481      Mn1264   2.124   1_455  S
C482        C574   1.508       .  S
O484        C489   1.257       .  A
Mn485       O488   2.098       .  S
O486       C1272   1.275       .  A
O487      Mn1292   1.993       .  S
O487        C489   1.220       .  S
C489        C494   1.503       .  S
C490       C1303   1.410   1_455  A
C490        C495   1.408       .  A
C490       Br497   1.939       .  S
C491       C1302   1.411       .  A
C491        C492   1.411       .  A
C492        C493   1.411       .  A
C492       Br499   1.930       .  S
C493        C494   1.418       .  A
C493       Br498   1.926       .  S
C494       C1307   1.420       .  A
C495       C1306   1.420   1_455  A
C495       Br496   1.926       .  S
C500       C1313   1.418       .  A
C500        C505   1.409       .  A
C500       Br507   1.904   1_655  S
C501       C1312   1.418       .  A
C501        C502   1.428       .  A
C502        C503   1.417       .  A
C502       Br509   1.932       .  S
C503        C504   1.404       .  A
C503       Br508   1.922       .  S
C504       C1317   1.400       .  A
C505       C1316   1.400       .  A
C505       Br506   1.933   1_655  S
C510       C1323   1.409       .  A
C510        C515   1.409   1_655  A
C510       Br517   1.938   1_655  S
C511       C1322   1.409       .  A
C511        C512   1.415       .  A
C512        C513   1.419       .  A
C512       Br519   1.929       .  S
C513        C514   1.420       .  A
C513       Br518   1.927       .  S
C514       C1327   1.422       .  A
C515       C1326   1.422   1_455  A
C515       Br516   1.926       .  S
C520       C1333   1.412       .  A
C520        C525   1.415       .  A
C520       Br527   1.935   1_655  S
C521       C1332   1.412       .  A
C521        C522   1.411       .  A
C522        C523   1.412       .  A
C522       Br529   1.923       .  S
C523        C524   1.413       .  A
C523       Br528   1.927       .  S
C524       C1337   1.417       .  A
C525       C1336   1.417       .  A
C525       Br526   1.911   1_655  S
C530        C531   1.423       .  A
C530        C535   1.417       .  A
C530       Br537   1.927       .  S
C531        C532   1.420   1_545  A
C532        C533   1.414       .  A
C532       Br539   1.907       .  S
C533        C534   1.407   1_565  A
C533       Br741   1.936       .  S
C534        C535   1.409       .  A
C535       Br536   1.930       .  S
Br538       C736   1.936   1_554  S
C540        C541   1.410       .  A
C540        C545   1.409       .  A
C540       Br547   1.940       .  S
C541        C542   1.412   1_565  A
C542        C543   1.414   1_545  A
C542       Br752   1.929       .  S
C543        C544   1.418       .  A
C543       Br548   1.925   1_565  S
C544        C545   1.422       .  A
C545       Br546   1.926       .  S
Br549       C745   1.929   1_554  S
C550        C551   1.419   1_565  A
C550        C555   1.410       .  A
C550       Br557   1.905       .  S
C551        C552   1.424       .  A
C552        C553   1.413       .  A
C552       Br559   1.931       .  S
C553        C554   1.404       .  A
C553       Br558   1.920       .  S
C554        C555   1.403   1_545  A
C555       Br556   1.934       .  S
C560        C561   1.416   1_545  A
C560        C565   1.416   1_545  A
C560       Br567   1.929       .  S
C561        C562   1.416       .  A
C562        C563   1.408       .  A
C563        C564   1.418       .  A
C564        C565   1.417       .  A
C565       Br566   1.929   1_565  S
C570        C571   1.411       .  A
C570        C575   1.407       .  A
C570       Br577   1.942       .  S
C571        C572   1.414       .  A
C572        C573   1.418       .  A
C572       Br782   1.926       .  S
C573        C574   1.419       .  A
C573       Br578   1.930       .  S
C574        C575   1.420       .  A
C575       Br576   1.924       .  S
Br579       C775   1.926   1_554  S
C580        C581   1.410       .  A
C580        C585   1.412       .  A
C580       Br790   1.936       .  S
C581        C582   1.413       .  A
C582        C583   1.411       .  A
C582       Br589   1.921       .  S
C583        C584   1.413       .  A
C583       Br588   1.928       .  S
C584        C585   1.415       .  A
C585       Br586   1.908       .  S
Br587       C783   1.936   1_554  S
C590        C591   1.411       .  A
C590        C595   1.411       .  A
C590       Br597   1.940       .  S
C591        C592   1.413       .  A
C592        C593   1.413       .  A
C592       Br599   1.927       .  S
C593        C594   1.418       .  A
C593       Br598   1.926       .  S
C594        C595   1.423       .  A
C595       Br596   1.923       .  S
C600        C601   1.425       .  A
C600        C605   1.417       .  A
C600       Br607   1.930       .  S
C601        C602   1.420       .  A
C602        C603   1.414       .  A
C602       Br609   1.909       .  S
C603        C604   1.405       .  A
C603       Br608   1.932       .  S
C604        C605   1.407       .  A
C605       Br606   1.926       .  S
C610        N611   1.366       .  A
C610        N615   1.357       .  A
C610        C807   1.492       .  S
N611        C612   1.369       .  A
C612        N613   1.360       .  A
C612        C618   1.485       .  S
N613        C614   1.360       .  A
C614        N615   1.359       .  A
C614        C794   1.495       .  S
C616        N621   1.356       .  A
C616        C784   1.493       .  S
N617        C618   1.363       .  A
C618        N619   1.366       .  A
C620        N621   1.357       .  A
C620        C774   1.495       .  S
C622        N623   1.361       .  A
C622        N627   1.355       .  A
C622        C757   1.483       .  S
N623        C624   1.363       .  A
C624        N625   1.365   1_545  A
C624        C630   1.481       .  S
N625        C626   1.363       .  A
C626        N627   1.357   1_565  A
C626        C764   1.498       .  S
C628        N633   1.358       .  A
C628        C737   1.493       .  S
N629        C630   1.365       .  A
C630        N631   1.361   1_545  A
C632        N633   1.359   1_565  A
C632        C744   1.492       .  S
C634        N635   1.359       .  A
C634        N639   1.363       .  A
C634        C724   1.496       .  S
N635        C636   1.360       .  A
C636        N637   1.360       .  A
C636        C714   1.497       .  S
N637        C638   1.363       .  A
C638        N639   1.365       .  A
C638        C644   1.480       .  S
C640        N641   1.356       .  A
C640        C707   1.483       .  S
N641        C642   1.357       .  A
C642        C694   1.487       .  S
N643        C644   1.361       .  A
C644        N645   1.364       .  A
O646       Mn672   2.096       .  S
C647        C787   1.503       .  S
C647        O680   1.275       .  A
C647        O677   1.273       .  A
O648       Mn655   2.171       .  S
O648       Mn666   2.126       .  S
O648       Mn670   2.175       .  S
O649       Mn683   2.146       .  S
O649        C659   1.281       .  A
O650       Mn666   2.134       .  S
O650        C673   1.279       .  A
O651       Mn670   2.123       .  S
O651        C678   1.257       .  A
O652      Mn1495   1.984       .  S
O652       Mn672   1.954       .  S
O652        C668   1.219       .  S
C653        C767   1.508       .  S
C653        O656   1.258       .  A
C653        O679   1.220       .  S
O654      Mn1486   2.124       .  S
O654       Mn655   2.170       .  S
O654       Mn688   2.141       .  S
O654       Mn670   2.174       .  S
Mn655      O1496   2.124       .  S
Mn655       O660   2.127       .  S
Mn655      O1067   2.174   1_565  S
O656      Mn1482   2.124   1_455  S
O657       Mn664   2.111       .  S
O657        C659   1.272       .  A
C658        C747   1.509       .  S
C658        O684   1.257       .  A
C658        O671   1.218       .  S
C659        C804   1.522       .  S
O660        C685   1.258       .  A
O661      Mn1061   2.174   1_455  S
O661       Mn664   2.141       .  S
O661       Mn683   2.125       .  S
O661      Mn1076   2.173   1_455  S
O662       Mn666   1.987       .  S
O662       Mn688   1.958       .  S
O662        C685   1.219       .  S
C663        C727   1.505       .  S
C663       O1501   1.275       .  A
C663        O665   1.275       .  A
Mn664       O677   2.105       .  S
O665       Mn688   2.115       .  S
Mn666       O682   2.146       .  S
Mn666       O676   1.995       .  S
O667       Mn672   2.114       .  S
C668        C717   1.512       .  S
C668        O686   1.258       .  A
C669        C734   1.520   1_565  S
C669        O682   1.280       .  A
Mn670      O1468   2.124       .  S
Mn670      O1067   2.173   1_565  S
O671       Mn674   1.987       .  S
Mn672       O690   1.958       .  S
C673        C754   1.512   1_565  S
Mn674       O681   2.146   1_455  S
Mn674       O689   2.124   1_455  S
Mn674      O1466   2.124   1_455  S
Mn674       O679   1.990       .  S
C675        C704   1.518       .  S
C675       O1493   1.281       .  A
C675        O691   1.269       .  A
O676       Mn688   1.956       .  S
O676        C678   1.219       .  S
C678        C797   1.511       .  S
O680       Mn683   2.127       .  S
O681       C1487   1.281       .  A
Mn683      O1464   1.984   1_455  S
Mn683      O1502   1.993   1_455  S
O684      Mn1467   2.124   1_455  S
C685        C777   1.508       .  S
O687        C692   1.257       .  A
Mn688       O691   2.098       .  S
O689       C1475   1.275       .  A
O690      Mn1495   1.993       .  S
O690        C692   1.220       .  S
C692        C697   1.503       .  S
C693       C1506   1.410   1_455  A
C693        C698   1.408       .  A
C693       Br700   1.939       .  S
C694       C1505   1.411       .  A
C694        C695   1.411       .  A
C695        C696   1.411       .  A
C695       Br702   1.930   1_556  S
C696        C697   1.418       .  A
C696       Br701   1.926       .  S
C697       C1510   1.421       .  A
C698       C1509   1.421   1_455  A
C698       Br699   1.926       .  S
C703       C1516   1.418       .  A
C703        C708   1.409       .  A
C703       Br710   1.904   1_655  S
C704       C1515   1.418       .  A
C704        C705   1.427       .  A
C705        C706   1.417       .  A
C705       Br712   1.932       .  S
C706        C707   1.404       .  A
C706       Br711   1.922       .  S
C707       C1520   1.400       .  A
C708       C1519   1.400       .  A
C708       Br709   1.933   1_655  S
C713       C1526   1.409       .  A
C713        C718   1.409   1_655  A
C713       Br720   1.938   1_655  S
C714       C1525   1.409       .  A
C714        C715   1.415       .  A
C715        C716   1.419       .  A
C715       Br722   1.929       .  S
C716        C717   1.420       .  A
C716       Br721   1.927       .  S
C717       C1530   1.422       .  A
C718       C1529   1.422   1_455  A
C718       Br719   1.926       .  S
C723       C1536   1.412       .  A
C723        C728   1.415       .  A
C723       Br730   1.935   1_655  S
C724       C1535   1.412       .  A
C724        C725   1.411       .  A
C725        C726   1.412       .  A
C725       Br732   1.923       .  S
C726        C727   1.414       .  A
C726       Br731   1.927       .  S
C727       C1540   1.417       .  A
C728       C1539   1.417       .  A
C728       Br729   1.911   1_655  S
C733        C734   1.423       .  A
C733        C738   1.417       .  A
C733       Br740   1.927       .  S
C734        C735   1.420   1_545  A
C735        C736   1.414       .  A
C735       Br742   1.907       .  S
C736        C737   1.407   1_565  A
C737        C738   1.409       .  A
C738       Br739   1.930       .  S
C743        C744   1.411       .  A
C743        C748   1.409       .  A
C743       Br750   1.940       .  S
C744        C745   1.412   1_565  A
C745        C746   1.414   1_545  A
C746        C747   1.418       .  A
C746       Br751   1.925   1_565  S
C747        C748   1.422       .  A
C748       Br749   1.926       .  S
C753        C754   1.419   1_565  A
C753        C758   1.410       .  A
C753       Br760   1.905       .  S
C754        C755   1.424       .  A
C755        C756   1.413       .  A
C755       Br762   1.931       .  S
C756        C757   1.404       .  A
C756       Br761   1.920       .  S
C757        C758   1.403   1_545  A
C758       Br759   1.934       .  S
C763        C764   1.416   1_545  A
C763        C768   1.416   1_545  A
C763       Br770   1.929       .  S
C764        C765   1.416       .  A
C765        C766   1.408       .  A
C766        C767   1.418       .  A
C767        C768   1.417       .  A
C768       Br769   1.929   1_565  S
C773        C774   1.411       .  A
C773        C778   1.407       .  A
C773       Br780   1.942       .  S
C774        C775   1.414       .  A
C775        C776   1.418       .  A
C776        C777   1.419       .  A
C776       Br781   1.930       .  S
C777        C778   1.420       .  A
C778       Br779   1.924       .  S
C783        C784   1.410       .  A
C783        C788   1.412       .  A
C784        C785   1.413       .  A
C785        C786   1.412       .  A
C785       Br792   1.921       .  S
C786        C787   1.413       .  A
C786       Br791   1.928       .  S
C787        C788   1.415       .  A
C788       Br789   1.908       .  S
C793        C794   1.411       .  A
C793        C798   1.410       .  A
C793       Br800   1.940       .  S
C794        C795   1.413       .  A
C795        C796   1.413       .  A
C795       Br802   1.927       .  S
C796        C797   1.418       .  A
C796       Br801   1.926       .  S
C797        C798   1.423       .  A
C798       Br799   1.923       .  S
C803        C804   1.425       .  A
C803        C808   1.417       .  A
C803       Br810   1.930       .  S
C804        C805   1.420       .  A
C805        C806   1.414       .  A
C805       Br812   1.909       .  S
C806        C807   1.405       .  A
C806       Br811   1.932       .  S
C807        C808   1.407       .  A
C808       Br809   1.926       .  S
C813        N814   1.366       .  A
C813        N818   1.357       .  A
C813       C1010   1.492       .  S
N814        C815   1.369       .  A
C815        N816   1.360       .  A
C815        C821   1.485       .  S
N816        C817   1.360       .  A
C817        N818   1.359       .  A
C817        C997   1.494       .  S
C819       N1023   1.365       .  A
C819        N824   1.356       .  A
C819        C987   1.493       .  S
N820       C1022   1.365   1_554  A
N820        C821   1.363       .  A
C821        N822   1.366       .  A
N822       C1026   1.361   1_554  A
C823       N1025   1.361       .  A
C823        N824   1.357       .  A
C823        C977   1.495       .  S
C825        N826   1.361       .  A
C825        N830   1.355       .  A
C825        C960   1.483       .  S
N826        C827   1.363       .  A
C827        N828   1.365       .  A
C827        C833   1.481       .  S
N828        C829   1.362       .  A
C829        N830   1.357       .  A
C829        C967   1.498       .  S
C831       N1035   1.364       .  A
C831        N836   1.358       .  A
C831        C940   1.493       .  S
N832       C1034   1.364   1_554  A
N832        C833   1.365       .  A
C833        N834   1.362       .  A
N834       C1038   1.360   1_554  A
C835       N1037   1.360       .  A
C835        N836   1.359       .  A
C835        C947   1.492       .  S
C837        N838   1.359       .  A
C837        N842   1.363       .  A
C837        C927   1.497       .  S
N838        C839   1.360       .  A
C839        N840   1.360       .  A
C839        C917   1.496       .  S
N840        C841   1.363       .  A
C841        N842   1.365       .  A
C841        C847   1.480       .  S
C843        N844   1.356       .  A
C843       N1051   1.364       .  A
C843        C910   1.483       .  S
N844        C845   1.357       .  A
C845       N1049   1.359       .  A
C845        C897   1.488       .  S
N846       C1048   1.358   1_554  A
N846        C847   1.361       .  A
C847        N848   1.364       .  A
N848       C1046   1.364   1_554  A
O849       Mn875   2.096       .  S
O849       C1282   1.270   1_545  A
C850        C990   1.503       .  S
C850        O883   1.276       .  A
C850        O880   1.273       .  A
O851       Mn858   2.171       .  S
O851       Mn869   2.126       .  S
O851       Mn873   2.175       .  S
O851      Mn1281   2.141       .  S
O852       Mn886   2.146       .  S
O852        C862   1.281       .  A
O853       Mn869   2.134       .  S
O853        C876   1.279       .  A
O854       Mn873   2.123       .  S
O854        C881   1.257       .  A
O855       Mn875   1.954       .  S
O855        C871   1.219       .  S
C856        C970   1.508       .  S
C856        O859   1.259       .  A
C856        O882   1.220       .  S
O857       Mn858   2.170       .  S
O857       Mn891   2.141       .  S
O857       Mn873   2.174       .  S
Mn858       O863   2.127       .  S
Mn858      O1296   2.113       .  S
O860       Mn867   2.111       .  S
O860        C862   1.272       .  A
C861        C950   1.509       .  S
C861        O887   1.257       .  A
C861        O874   1.218       .  S
C862       C1007   1.523       .  S
O863        C888   1.258       .  A
O864       Mn867   2.142       .  S
O864       Mn886   2.124       .  S
O865       Mn869   1.987       .  S
O865       Mn891   1.958       .  S
O865        C888   1.219       .  S
C866        C930   1.505       .  S
C866        O868   1.275       .  A
Mn867       O880   2.105       .  S
Mn867      O1288   1.951   1_545  S
Mn867      O1280   1.960   1_545  S
O868       Mn891   2.115       .  S
Mn869       O885   2.146       .  S
Mn869       O879   1.995       .  S
O870       Mn875   2.114       .  S
O870       C1278   1.274   1_545  A
C871        C920   1.512       .  S
C871        O889   1.258       .  A
C872        C937   1.520       .  S
C872       O1276   1.274       .  A
C872        O885   1.280       .  A
Mn873      O1295   2.131       .  S
O874      Mn1273   1.960       .  S
O874       Mn877   1.987       .  S
Mn875      O1257   2.141   1_545  S
Mn875       O893   1.958       .  S
C876        C957   1.512       .  S
C876       O1255   1.270       .  A
Mn877       O884   2.146       .  S
Mn877       O892   2.123       .  S
Mn877       O882   1.990       .  S
C878        C907   1.518       .  S
C878        O894   1.269       .  A
O879       Mn891   1.956       .  S
O879        C881   1.219       .  S
C881       C1000   1.511       .  S
O882      Mn1273   1.951       .  S
O883       Mn886   2.127       .  S
C888        C980   1.508       .  S
O889      Mn1279   2.131   1_545  S
O890      Mn1264   2.114   1_545  S
O890        C895   1.257       .  A
Mn891       O894   2.098       .  S
O893        C895   1.220       .  S
C895        C900   1.503       .  S
C896        C901   1.408       .  A
C896       Br903   1.939       .  S
C897        C898   1.411       .  A
C898        C899   1.411       .  A
C898       Br905   1.930       .  S
C899        C900   1.418       .  A
C899       Br904   1.926       .  S
C901       Br902   1.926       .  S
C906        C911   1.409       .  A
C906       Br913   1.904       .  S
C907        C908   1.427       .  A
C908        C909   1.417       .  A
C908       Br915   1.932       .  S
C909        C910   1.404       .  A
C909       Br914   1.922       .  S
C911       Br912   1.933       .  S
C916        C921   1.409       .  A
C916       Br923   1.938       .  S
C917        C918   1.415       .  A
C918        C919   1.419       .  A
C918       Br925   1.929       .  S
C919        C920   1.420       .  A
C919       Br924   1.927       .  S
C921       Br922   1.926       .  S
C926        C931   1.415       .  A
C926       Br933   1.935       .  S
C927        C928   1.411       .  A
C928        C929   1.412       .  A
C928       Br935   1.923       .  S
C929        C930   1.413       .  A
C929       Br934   1.927       .  S
C931       Br932   1.912       .  S
C936        C937   1.423       .  A
C936        C941   1.417       .  A
C936       Br943   1.927       .  S
C937        C938   1.420       .  A
C938        C939   1.414       .  A
C938       Br945   1.907       .  S
C939        C940   1.407       .  A
C939      Br1147   1.936       .  S
C940        C941   1.409       .  A
C941       Br942   1.930       .  S
Br944      C1142   1.936   1_554  S
C946        C947   1.410       .  A
C946        C951   1.409       .  A
C946       Br953   1.940       .  S
C947        C948   1.412       .  A
C948        C949   1.414       .  A
C948      Br1158   1.929       .  S
C949        C950   1.418       .  A
C949       Br954   1.925       .  S
C950        C951   1.422       .  A
C951       Br952   1.926       .  S
Br955      C1151   1.929   1_554  S
C956        C957   1.419       .  A
C956        C961   1.410       .  A
C956       Br963   1.905       .  S
C957        C958   1.424       .  A
C958        C959   1.413       .  A
C958       Br965   1.931       .  S
C959        C960   1.404       .  A
C959       Br964   1.920       .  S
C960        C961   1.403       .  A
C961       Br962   1.934       .  S
C966        C967   1.416       .  A
C966        C971   1.416       .  A
C966       Br973   1.929       .  S
C967        C968   1.416       .  A
C968        C969   1.408       .  A
C968      Br1381   1.942       .  S
C969        C970   1.418       .  A
C969      Br1380   1.925       .  S
C970        C971   1.418       .  A
C971       Br972   1.929       .  S
Br974      C1375   1.925       .  S
Br975      C1374   1.942       .  S
C976        C977   1.411       .  A
C976        C981   1.407       .  A
C976       Br983   1.942       .  S
C977        C978   1.414       .  A
C978        C979   1.418       .  A
C978      Br1188   1.926       .  S
C979        C980   1.419       .  A
C979       Br984   1.930       .  S
C980        C981   1.420       .  A
C981       Br982   1.924       .  S
Br985      C1181   1.926   1_554  S
C986        C987   1.410       .  A
C986        C991   1.412       .  A
C986      Br1196   1.936       .  S
C987        C988   1.413       .  A
C988        C989   1.412       .  A
C988       Br995   1.921       .  S
C989        C990   1.413       .  A
C989       Br994   1.928       .  S
C990        C991   1.415       .  A
C991       Br992   1.908       .  S
Br993      C1189   1.936   1_554  S
C996        C997   1.411       .  A
C996       C1001   1.410       .  A
C996      Br1003   1.940       .  S
C997        C998   1.413       .  A
C998        C999   1.413       .  A
C998      Br1005   1.927       .  S
C999       C1000   1.418       .  A
C999      Br1004   1.926       .  S
C1000      C1001   1.423       .  A
C1001     Br1002   1.923       .  S
C1006      C1007   1.425       .  A
C1006      C1011   1.417       .  A
C1006     Br1013   1.930       .  S
C1007      C1008   1.420       .  A
C1008      C1009   1.414       .  A
C1008     Br1015   1.909       .  S
C1009      C1010   1.405       .  A
C1009     Br1014   1.932       .  S
C1010      C1011   1.407       .  A
C1011     Br1012   1.926       .  S
C1016      N1017   1.366       .  A
C1016      N1021   1.357       .  A
C1016      C1213   1.492       .  S
N1017      C1018   1.369       .  A
C1018      N1019   1.360       .  A
C1018      C1024   1.485       .  S
N1019      C1020   1.360       .  A
C1020      N1021   1.359       .  A
C1020      C1200   1.495       .  S
C1022      N1027   1.356       .  A
C1022      C1190   1.493       .  S
N1023      C1024   1.363       .  A
C1024      N1025   1.366       .  A
C1026      N1027   1.357       .  A
C1026      C1180   1.495       .  S
C1028      N1029   1.361       .  A
C1028      N1033   1.355       .  A
C1028      C1163   1.484       .  S
N1029      C1030   1.363       .  A
C1030      N1031   1.365       .  A
C1030      C1036   1.481       .  S
N1031      C1032   1.363       .  A
C1032      N1033   1.357       .  A
C1032      C1170   1.498       .  S
C1034      N1039   1.358       .  A
C1034      C1143   1.493       .  S
N1035      C1036   1.365       .  A
C1036      N1037   1.362       .  A
C1038      N1039   1.359       .  A
C1038      C1150   1.492       .  S
C1040      N1041   1.359       .  A
C1040      N1045   1.363       .  A
C1040      C1130   1.497       .  S
N1041      C1042   1.360       .  A
C1042      N1043   1.360       .  A
C1042      C1120   1.497       .  S
N1043      C1044   1.363       .  A
C1044      N1045   1.365       .  A
C1044      C1050   1.480       .  S
C1046      N1047   1.356       .  A
C1046      C1113   1.483       .  S
N1047      C1048   1.357       .  A
C1048      C1100   1.488       .  S
N1049      C1050   1.361       .  A
C1050      N1051   1.364       .  A
O1052     Mn1078   2.096       .  S
O1052      C1485   1.270   1_545  A
C1053      C1193   1.503       .  S
C1053      O1086   1.275       .  A
C1053      O1083   1.273       .  A
O1054     Mn1061   2.171       .  S
O1054     Mn1072   2.126       .  S
O1054     Mn1076   2.175       .  S
O1054     Mn1484   2.141       .  S
O1055     Mn1089   2.146       .  S
O1055      C1065   1.281       .  A
O1056     Mn1072   2.135       .  S
O1056      C1079   1.279       .  A
O1057     Mn1076   2.123       .  S
O1057      C1084   1.257       .  A
O1058     Mn1078   1.954       .  S
O1058      C1074   1.219       .  S
C1059      C1173   1.508       .  S
C1059      O1062   1.258       .  A
C1059      O1085   1.220       .  S
O1060     Mn1061   2.170       .  S
O1060     Mn1094   2.141       .  S
O1060     Mn1076   2.174       .  S
Mn1061     O1066   2.127       .  S
Mn1061     O1499   2.113       .  S
O1063     Mn1070   2.111       .  S
O1063      C1065   1.272       .  A
C1064      C1153   1.509       .  S
C1064      O1090   1.257       .  A
C1064      O1077   1.218       .  S
C1065      C1210   1.523       .  S
O1066      C1091   1.259       .  A
O1067     Mn1070   2.142       .  S
O1067     Mn1089   2.124       .  S
O1068     Mn1072   1.987       .  S
O1068     Mn1094   1.958       .  S
O1068      C1091   1.219       .  S
C1069      C1133   1.505       .  S
C1069      O1071   1.275       .  A
Mn1070     O1083   2.105       .  S
Mn1070     O1491   1.951   1_545  S
Mn1070     O1483   1.960   1_545  S
O1071     Mn1094   2.115       .  S
Mn1072     O1088   2.146       .  S
Mn1072     O1082   1.995       .  S
O1073     Mn1078   2.114       .  S
O1073      C1481   1.274   1_545  A
C1074      C1123   1.512       .  S
C1074      O1092   1.258       .  A
C1075      C1140   1.520       .  S
C1075      O1479   1.274       .  A
C1075      O1088   1.280       .  A
Mn1076     O1498   2.131       .  S
O1077     Mn1476   1.960       .  S
O1077     Mn1080   1.987       .  S
Mn1078     O1460   2.141   1_545  S
Mn1078     O1096   1.958       .  S
C1079      C1160   1.512       .  S
C1079      O1458   1.270       .  A
Mn1080     O1087   2.146       .  S
Mn1080     O1095   2.123       .  S
Mn1080     O1085   1.989       .  S
C1081      C1110   1.519       .  S
C1081      O1097   1.269       .  A
O1082     Mn1094   1.956       .  S
O1082      C1084   1.219       .  S
C1084      C1203   1.511       .  S
O1085     Mn1476   1.951       .  S
O1086     Mn1089   2.127       .  S
C1091      C1183   1.508       .  S
O1092     Mn1482   2.131   1_545  S
O1093     Mn1467   2.114   1_545  S
O1093      C1098   1.257       .  A
Mn1094     O1097   2.098       .  S
O1096      C1098   1.220       .  S
C1098      C1103   1.503       .  S
C1099      C1104   1.408       .  A
C1099     Br1106   1.939       .  S
C1100      C1101   1.411       .  A
C1101      C1102   1.411       .  A
C1101     Br1108   1.930   1_556  S
C1102      C1103   1.418       .  A
C1102     Br1107   1.926       .  S
C1104     Br1105   1.926       .  S
C1109      C1114   1.409       .  A
C1109     Br1116   1.904       .  S
C1110      C1111   1.428       .  A
C1111      C1112   1.417       .  A
C1111     Br1118   1.932       .  S
C1112      C1113   1.404       .  A
C1112     Br1117   1.922       .  S
C1114     Br1115   1.933       .  S
C1119      C1124   1.409       .  A
C1119     Br1126   1.938       .  S
C1120      C1121   1.415       .  A
C1121      C1122   1.419       .  A
C1121     Br1128   1.929       .  S
C1122      C1123   1.420       .  A
C1122     Br1127   1.927       .  S
C1124     Br1125   1.926       .  S
C1129      C1134   1.415       .  A
C1129     Br1136   1.935       .  S
C1130      C1131   1.411       .  A
C1131      C1132   1.412       .  A
C1131     Br1138   1.923       .  S
C1132      C1133   1.413       .  A
C1132     Br1137   1.927       .  S
C1134     Br1135   1.911       .  S
C1139      C1140   1.423       .  A
C1139      C1144   1.417       .  A
C1139     Br1146   1.927       .  S
C1140      C1141   1.420       .  A
C1141      C1142   1.414       .  A
C1141     Br1148   1.907       .  S
C1142      C1143   1.407       .  A
C1143      C1144   1.409       .  A
C1144     Br1145   1.930       .  S
C1149      C1150   1.410       .  A
C1149      C1154   1.409       .  A
C1149     Br1156   1.940       .  S
C1150      C1151   1.412       .  A
C1151      C1152   1.414       .  A
C1152      C1153   1.418       .  A
C1152     Br1157   1.925       .  S
C1153      C1154   1.422       .  A
C1154     Br1155   1.926       .  S
C1159      C1160   1.419       .  A
C1159      C1164   1.410       .  A
C1159     Br1166   1.905       .  S
C1160      C1161   1.424       .  A
C1161      C1162   1.413       .  A
C1161     Br1168   1.931       .  S
C1162      C1163   1.404       .  A
C1162     Br1167   1.920       .  S
C1163      C1164   1.403       .  A
C1164     Br1165   1.934       .  S
C1169      C1170   1.416       .  A
C1169      C1174   1.416       .  A
C1169     Br1176   1.929       .  S
C1170      C1171   1.416       .  A
C1171      C1172   1.408       .  A
C1171     Br1584   1.942       .  S
C1172      C1173   1.418       .  A
C1172     Br1583   1.925       .  S
C1173      C1174   1.417       .  A
C1174     Br1175   1.929       .  S
Br1177     C1578   1.925       .  S
Br1178     C1577   1.942       .  S
C1179      C1180   1.411       .  A
C1179      C1184   1.407       .  A
C1179     Br1186   1.942       .  S
C1180      C1181   1.414       .  A
C1181      C1182   1.418       .  A
C1182      C1183   1.419       .  A
C1182     Br1187   1.930       .  S
C1183      C1184   1.420       .  A
C1184     Br1185   1.925       .  S
C1189      C1190   1.410       .  A
C1189      C1194   1.412       .  A
C1190      C1191   1.413       .  A
C1191      C1192   1.412       .  A
C1191     Br1198   1.921       .  S
C1192      C1193   1.413       .  A
C1192     Br1197   1.928       .  S
C1193      C1194   1.415       .  A
C1194     Br1195   1.908       .  S
C1199      C1200   1.411       .  A
C1199      C1204   1.411       .  A
C1199     Br1206   1.940       .  S
C1200      C1201   1.413       .  A
C1201      C1202   1.413       .  A
C1201     Br1208   1.927       .  S
C1202      C1203   1.418       .  A
C1202     Br1207   1.926       .  S
C1203      C1204   1.423       .  A
C1204     Br1205   1.923       .  S
C1209      C1210   1.425       .  A
C1209      C1214   1.417       .  A
C1209     Br1216   1.930       .  S
C1210      C1211   1.420       .  A
C1211      C1212   1.414       .  A
C1211     Br1218   1.909       .  S
C1212      C1213   1.405       .  A
C1212     Br1217   1.932       .  S
C1213      C1214   1.407       .  A
C1214     Br1215   1.926       .  S
C1219      N1220   1.366       .  A
C1219      N1224   1.357       .  A
C1219      C1416   1.492       .  S
N1220      C1221   1.369       .  A
C1221      N1222   1.360       .  A
C1221      C1227   1.485       .  S
N1222      C1223   1.360       .  A
C1223      N1224   1.359       .  A
C1223      C1403   1.495       .  S
C1225      N1429   1.365       .  A
C1225      N1230   1.356       .  A
C1225      C1393   1.493       .  S
N1226      C1428   1.365   1_554  A
N1226      C1227   1.363       .  A
C1227      N1228   1.366       .  A
N1228      C1432   1.361   1_554  A
C1229      N1431   1.361       .  A
C1229      N1230   1.357       .  A
C1229      C1383   1.495       .  S
C1231      N1232   1.361       .  A
C1231      N1236   1.355       .  A
C1231      C1366   1.483       .  S
N1232      C1233   1.363       .  A
C1233      N1234   1.365   1_545  A
C1233      C1239   1.481       .  S
N1234      C1235   1.363       .  A
C1235      N1236   1.357   1_565  A
C1235      C1373   1.498       .  S
C1237      N1441   1.364       .  A
C1237      N1242   1.358       .  A
C1237      C1346   1.493       .  S
N1238      C1440   1.364   1_554  A
N1238      C1239   1.365       .  A
C1239      N1240   1.362   1_545  A
N1240      C1444   1.360   1_554  A
C1241      N1443   1.360       .  A
C1241      N1242   1.359   1_565  A
C1241      C1353   1.492       .  S
C1243      N1244   1.359       .  A
C1243      N1248   1.363       .  A
C1243      C1333   1.496       .  S
N1244      C1245   1.360       .  A
C1245      N1246   1.360       .  A
C1245      C1323   1.497       .  S
N1246      C1247   1.363       .  A
C1247      N1248   1.365       .  A
C1247      C1253   1.480       .  S
C1249      N1250   1.356       .  A
C1249      N1457   1.364       .  A
C1249      C1316   1.483       .  S
N1250      C1251   1.357       .  A
C1251      N1455   1.358       .  A
C1251      C1303   1.488       .  S
N1252      C1454   1.358   1_554  A
N1252      C1253   1.361       .  A
C1253      N1254   1.364       .  A
N1254      C1452   1.364   1_554  A
O1255     Mn1281   2.096       .  S
C1256      C1396   1.503       .  S
C1256      O1289   1.275       .  A
C1256      O1286   1.273       .  A
O1257     Mn1264   2.171       .  S
O1257     Mn1275   2.126       .  S
O1257     Mn1279   2.175       .  S
O1258     Mn1292   2.146       .  S
O1258      C1268   1.281       .  A
O1259     Mn1275   2.135       .  S
O1259      C1282   1.279       .  A
O1260     Mn1279   2.123       .  S
O1260      C1287   1.257       .  A
O1261     Mn1281   1.954       .  S
O1261      C1277   1.219       .  S
C1262      C1376   1.508       .  S
C1262      O1265   1.258       .  A
C1262      O1288   1.220       .  S
O1263     Mn1264   2.170       .  S
O1263     Mn1297   2.141       .  S
O1263     Mn1279   2.174       .  S
Mn1264     O1269   2.127       .  S
O1266     Mn1273   2.111       .  S
O1266      C1268   1.272       .  A
C1267      C1356   1.509       .  S
C1267      O1293   1.257       .  A
C1267      O1280   1.218       .  S
C1268      C1413   1.523       .  S
O1269      C1294   1.258       .  A
O1270     Mn1273   2.142       .  S
O1270     Mn1292   2.124       .  S
O1271     Mn1275   1.987       .  S
O1271     Mn1297   1.958       .  S
O1271      C1294   1.219       .  S
C1272      C1336   1.505       .  S
C1272      O1274   1.275       .  A
Mn1273     O1286   2.105       .  S
O1274     Mn1297   2.115       .  S
Mn1275     O1291   2.146       .  S
Mn1275     O1285   1.995       .  S
O1276     Mn1281   2.114       .  S
C1277      C1326   1.512       .  S
C1277      O1295   1.258       .  A
C1278      C1343   1.520   1_565  S
C1278      O1291   1.280       .  A
O1280     Mn1283   1.987       .  S
Mn1281     O1299   1.958       .  S
C1282      C1363   1.512   1_565  S
Mn1283     O1290   2.146       .  S
Mn1283     O1298   2.123       .  S
Mn1283     O1288   1.990       .  S
C1284      C1313   1.518       .  S
C1284      O1300   1.269       .  A
O1285     Mn1297   1.956       .  S
O1285      C1287   1.219       .  S
C1287      C1406   1.511       .  S
O1289     Mn1292   2.127       .  S
C1294      C1386   1.508       .  S
O1296      C1301   1.257       .  A
Mn1297     O1300   2.098       .  S
O1299      C1301   1.220       .  S
C1301      C1306   1.503       .  S
C1302      C1307   1.408       .  A
C1302     Br1309   1.939       .  S
C1303      C1304   1.411       .  A
C1304      C1305   1.411       .  A
C1304     Br1311   1.930       .  S
C1305      C1306   1.418       .  A
C1305     Br1310   1.926       .  S
C1307     Br1308   1.926       .  S
C1312      C1317   1.409       .  A
C1312     Br1319   1.904       .  S
C1313      C1314   1.427       .  A
C1314      C1315   1.417       .  A
C1314     Br1321   1.932       .  S
C1315      C1316   1.404       .  A
C1315     Br1320   1.922       .  S
C1317     Br1318   1.933       .  S
C1322      C1327   1.409       .  A
C1322     Br1329   1.938       .  S
C1323      C1324   1.415       .  A
C1324      C1325   1.419       .  A
C1324     Br1331   1.929       .  S
C1325      C1326   1.420       .  A
C1325     Br1330   1.927       .  S
C1327     Br1328   1.926       .  S
C1332      C1337   1.415       .  A
C1332     Br1339   1.935       .  S
C1333      C1334   1.411       .  A
C1334      C1335   1.412       .  A
C1334     Br1341   1.923       .  S
C1335      C1336   1.414       .  A
C1335     Br1340   1.927       .  S
C1337     Br1338   1.911       .  S
C1342      C1343   1.423       .  A
C1342      C1347   1.417       .  A
C1342     Br1349   1.927       .  S
C1343      C1344   1.420   1_545  A
C1344      C1345   1.414       .  A
C1344     Br1351   1.907       .  S
C1345      C1346   1.407   1_565  A
C1345     Br1553   1.936       .  S
C1346      C1347   1.409       .  A
C1347     Br1348   1.930       .  S
Br1350     C1548   1.936   1_554  S
C1352      C1353   1.410       .  A
C1352      C1357   1.409       .  A
C1352     Br1359   1.940       .  S
C1353      C1354   1.412   1_565  A
C1354      C1355   1.414   1_545  A
C1354     Br1564   1.929       .  S
C1355      C1356   1.418       .  A
C1355     Br1360   1.925   1_565  S
C1356      C1357   1.422       .  A
C1357     Br1358   1.926       .  S
Br1361     C1557   1.929   1_554  S
C1362      C1363   1.419   1_565  A
C1362      C1367   1.410       .  A
C1362     Br1369   1.905       .  S
C1363      C1364   1.424       .  A
C1364      C1365   1.413       .  A
C1364     Br1371   1.931       .  S
C1365      C1366   1.404       .  A
C1365     Br1370   1.920       .  S
C1366      C1367   1.403   1_545  A
C1367     Br1368   1.934       .  S
C1372      C1373   1.416   1_545  A
C1372      C1377   1.416   1_545  A
C1372     Br1379   1.929       .  S
C1373      C1374   1.416       .  A
C1374      C1375   1.408       .  A
C1375      C1376   1.418       .  A
C1376      C1377   1.417       .  A
C1377     Br1378   1.929   1_565  S
C1382      C1383   1.411       .  A
C1382      C1387   1.407       .  A
C1382     Br1389   1.942       .  S
C1383      C1384   1.415       .  A
C1384      C1385   1.418       .  A
C1384     Br1594   1.926       .  S
C1385      C1386   1.419       .  A
C1385     Br1390   1.930       .  S
C1386      C1387   1.420       .  A
C1387     Br1388   1.924       .  S
Br1391     C1587   1.926   1_554  S
C1392      C1393   1.410       .  A
C1392      C1397   1.412       .  A
C1392     Br1602   1.936       .  S
C1393      C1394   1.413       .  A
C1394      C1395   1.412       .  A
C1394     Br1401   1.921       .  S
C1395      C1396   1.413       .  A
C1395     Br1400   1.928       .  S
C1396      C1397   1.415       .  A
C1397     Br1398   1.908       .  S
Br1399     C1595   1.936   1_554  S
C1402      C1403   1.411       .  A
C1402      C1407   1.410       .  A
C1402     Br1409   1.940       .  S
C1403      C1404   1.413       .  A
C1404      C1405   1.413       .  A
C1404     Br1411   1.927       .  S
C1405      C1406   1.418       .  A
C1405     Br1410   1.926       .  S
C1406      C1407   1.423       .  A
C1407     Br1408   1.923       .  S
C1412      C1413   1.425       .  A
C1412      C1417   1.417       .  A
C1412     Br1419   1.930       .  S
C1413      C1414   1.420       .  A
C1414      C1415   1.414       .  A
C1414     Br1421   1.909       .  S
C1415      C1416   1.405       .  A
C1415     Br1420   1.932       .  S
C1416      C1417   1.407       .  A
C1417     Br1418   1.926       .  S
C1422      N1423   1.366       .  A
C1422      N1427   1.357       .  A
C1422      C1619   1.492       .  S
N1423      C1424   1.369       .  A
C1424      N1425   1.360       .  A
C1424      C1430   1.485       .  S
N1425      C1426   1.360       .  A
C1426      N1427   1.359       .  A
C1426      C1606   1.495       .  S
C1428      N1433   1.356       .  A
C1428      C1596   1.493       .  S
N1429      C1430   1.363       .  A
C1430      N1431   1.366       .  A
C1432      N1433   1.357       .  A
C1432      C1586   1.495       .  S
C1434      N1435   1.361       .  A
C1434      N1439   1.355       .  A
C1434      C1569   1.483       .  S
N1435      C1436   1.363       .  A
C1436      N1437   1.365   1_545  A
C1436      C1442   1.481       .  S
N1437      C1438   1.363       .  A
C1438      N1439   1.357   1_565  A
C1438      C1576   1.498       .  S
C1440      N1445   1.358       .  A
C1440      C1549   1.493       .  S
N1441      C1442   1.365       .  A
C1442      N1443   1.362   1_545  A
C1444      N1445   1.359   1_565  A
C1444      C1556   1.492       .  S
C1446      N1447   1.359       .  A
C1446      N1451   1.363       .  A
C1446      C1536   1.497       .  S
N1447      C1448   1.360       .  A
C1448      N1449   1.360       .  A
C1448      C1526   1.497       .  S
N1449      C1450   1.363       .  A
C1450      N1451   1.365       .  A
C1450      C1456   1.480       .  S
C1452      N1453   1.356       .  A
C1452      C1519   1.483       .  S
N1453      C1454   1.357       .  A
C1454      C1506   1.487       .  S
N1455      C1456   1.361       .  A
C1456      N1457   1.364       .  A
O1458     Mn1484   2.096       .  S
C1459      C1599   1.503       .  S
C1459      O1492   1.275       .  A
C1459      O1489   1.273       .  A
O1460     Mn1467   2.171       .  S
O1460     Mn1478   2.126       .  S
O1460     Mn1482   2.175       .  S
O1461     Mn1495   2.146       .  S
O1461      C1471   1.281       .  A
O1462     Mn1478   2.134       .  S
O1462      C1485   1.279       .  A
O1463     Mn1482   2.123       .  S
O1463      C1490   1.257       .  A
O1464     Mn1484   1.954       .  S
O1464      C1480   1.219       .  S
C1465      C1579   1.508       .  S
C1465      O1468   1.258       .  A
C1465      O1491   1.220       .  S
O1466     Mn1467   2.170       .  S
O1466     Mn1500   2.141       .  S
O1466     Mn1482   2.174       .  S
Mn1467     O1472   2.127       .  S
O1469     Mn1476   2.111       .  S
O1469      C1471   1.272       .  A
C1470      C1559   1.509       .  S
C1470      O1496   1.257       .  A
C1470      O1483   1.218       .  S
C1471      C1616   1.522       .  S
O1472      C1497   1.258       .  A
O1473     Mn1476   2.141       .  S
O1473     Mn1495   2.125       .  S
O1474     Mn1478   1.987       .  S
O1474     Mn1500   1.958       .  S
O1474      C1497   1.219       .  S
C1475      C1539   1.505       .  S
C1475      O1477   1.275       .  A
Mn1476     O1489   2.104       .  S
O1477     Mn1500   2.115       .  S
Mn1478     O1494   2.145       .  S
Mn1478     O1488   1.995       .  S
O1479     Mn1484   2.114       .  S
C1480      C1529   1.512       .  S
C1480      O1498   1.258       .  A
C1481      C1546   1.520   1_565  S
C1481      O1494   1.280       .  A
O1483     Mn1486   1.987       .  S
Mn1484     O1502   1.958       .  S
C1485      C1566   1.512   1_565  S
Mn1486     O1493   2.146       .  S
Mn1486     O1501   2.124       .  S
Mn1486     O1491   1.990       .  S
C1487      C1516   1.518       .  S
C1487      O1503   1.269       .  A
O1488     Mn1500   1.956       .  S
O1488      C1490   1.219       .  S
C1490      C1609   1.511       .  S
O1492     Mn1495   2.127       .  S
C1497      C1589   1.508       .  S
O1499      C1504   1.257       .  A
Mn1500     O1503   2.098       .  S
O1502      C1504   1.220       .  S
C1504      C1509   1.503       .  S
C1505      C1510   1.408       .  A
C1505     Br1512   1.939       .  S
C1506      C1507   1.411       .  A
C1507      C1508   1.411       .  A
C1507     Br1514   1.930   1_556  S
C1508      C1509   1.418       .  A
C1508     Br1513   1.926       .  S
C1510     Br1511   1.926       .  S
C1515      C1520   1.409       .  A
C1515     Br1522   1.904       .  S
C1516      C1517   1.427       .  A
C1517      C1518   1.417       .  A
C1517     Br1524   1.932       .  S
C1518      C1519   1.404       .  A
C1518     Br1523   1.922       .  S
C1520     Br1521   1.933       .  S
C1525      C1530   1.409       .  A
C1525     Br1532   1.939       .  S
C1526      C1527   1.415       .  A
C1527      C1528   1.419       .  A
C1527     Br1534   1.929       .  S
C1528      C1529   1.420       .  A
C1528     Br1533   1.927       .  S
C1530     Br1531   1.926       .  S
C1535      C1540   1.415       .  A
C1535     Br1542   1.935       .  S
C1536      C1537   1.411       .  A
C1537      C1538   1.412       .  A
C1537     Br1544   1.923       .  S
C1538      C1539   1.413       .  A
C1538     Br1543   1.927       .  S
C1540     Br1541   1.911       .  S
C1545      C1546   1.423       .  A
C1545      C1550   1.417       .  A
C1545     Br1552   1.927       .  S
C1546      C1547   1.420   1_545  A
C1547      C1548   1.414       .  A
C1547     Br1554   1.907       .  S
C1548      C1549   1.407   1_565  A
C1549      C1550   1.409       .  A
C1550     Br1551   1.930       .  S
C1555      C1556   1.410       .  A
C1555      C1560   1.409       .  A
C1555     Br1562   1.940       .  S
C1556      C1557   1.412   1_565  A
C1557      C1558   1.414   1_545  A
C1558      C1559   1.418       .  A
C1558     Br1563   1.925   1_565  S
C1559      C1560   1.422       .  A
C1560     Br1561   1.926       .  S
C1565      C1566   1.419   1_565  A
C1565      C1570   1.410       .  A
C1565     Br1572   1.905       .  S
C1566      C1567   1.424       .  A
C1567      C1568   1.413       .  A
C1567     Br1574   1.931       .  S
C1568      C1569   1.404       .  A
C1568     Br1573   1.920       .  S
C1569      C1570   1.403   1_545  A
C1570     Br1571   1.934       .  S
C1575      C1576   1.416   1_545  A
C1575      C1580   1.416   1_545  A
C1575     Br1582   1.929       .  S
C1576      C1577   1.416       .  A
C1577      C1578   1.408       .  A
C1578      C1579   1.418       .  A
C1579      C1580   1.417       .  A
C1580     Br1581   1.929   1_565  S
C1585      C1586   1.411       .  A
C1585      C1590   1.407       .  A
C1585     Br1592   1.942       .  S
C1586      C1587   1.414       .  A
C1587      C1588   1.418       .  A
C1588      C1589   1.419       .  A
C1588     Br1593   1.930       .  S
C1589      C1590   1.420       .  A
C1590     Br1591   1.924       .  S
C1595      C1596   1.410       .  A
C1595      C1600   1.412       .  A
C1596      C1597   1.413       .  A
C1597      C1598   1.412       .  A
C1597     Br1604   1.921       .  S
C1598      C1599   1.413       .  A
C1598     Br1603   1.928       .  S
C1599      C1600   1.415       .  A
C1600     Br1601   1.908       .  S
C1605      C1606   1.411       .  A
C1605      C1610   1.410       .  A
C1605     Br1612   1.940       .  S
C1606      C1607   1.413       .  A
C1607      C1608   1.413       .  A
C1607     Br1614   1.927       .  S
C1608      C1609   1.418       .  A
C1608     Br1613   1.926       .  S
C1609      C1610   1.423       .  A
C1610     Br1611   1.923       .  S
C1615      C1616   1.425       .  A
C1615      C1620   1.417       .  A
C1615     Br1622   1.930       .  S
C1616      C1617   1.420       .  A
C1617      C1618   1.414       .  A
C1617     Br1624   1.909       .  S
C1618      C1619   1.405       .  A
C1618     Br1623   1.932       .  S
C1619      C1620   1.407       .  A
C1620     Br1621   1.926       .  S
