geometry optimzed in LAMMPS
_audit_creation_date              2020-11-30 
_audit_creation_method            'lammps2cif' 
_symmetry_space_group_name_H-M    'P1' 
_symmetry_Int_Tables_number       1 
_symmetry_cell_setting            triclinic 
loop_ 
_symmetry_equiv_pos_as_xyz 
  x,y,z 
_cell_length_a                    36.18151803 
_cell_length_b                    36.33234235108454 
_cell_length_c                    36.34860096727025 
_cell_angle_alpha                 90.06449284859721 
_cell_angle_beta                  90.04783822704222 
_cell_angle_gamma                 90.05156004545672 
loop_ 
_atom_site_label 
_atom_site_type_symbol 
_atom_site_fract_x 
_atom_site_fract_y 
_atom_site_fract_z 
_atom_site_charge 
O1          O  0.93485457  0.99221145  0.94059747    -0.78400
C2          C  0.03439325  0.92530132  0.93436992     0.82600
O3          O  0.94865606  0.93812382  0.06188400    -0.79600
O4          O  0.07918321  0.96829502  0.04027644    -0.81000
O5          O  0.03118199  0.07359813  0.97887016    -0.80800
O6          O  0.94448471  0.05098137  0.95550109    -0.79500
Zn7        Zn  0.96840146  0.96171067  0.97249402     1.55700
O8          O  0.07596611  0.03181259  0.97604085    -0.80900
Cd9        Cd  0.98474370  0.04530038  0.99582263     1.59700
Cd10       Cd  0.98801102  0.97982502  0.05757196     1.59600
O11         O  0.96726456  0.07081271  0.04404014    -0.80900
O12         O  0.99780813  0.99228329  0.00454995    -1.91400
Cd13       Cd  0.05126430  0.98327622  0.99305232     1.59900
O14         O  0.96987409  0.02599354  0.08578679    -0.80800
O15         O  0.05873278  0.94245944  0.95311141    -0.79500
C16         C  0.93235698  0.92021088  0.03640313     0.83100
C17         C  0.92819970  0.02636086  0.93650092     0.82700
O18         O  0.99999007  0.93081998  0.93901061    -0.78400
C19         C  0.06477118  0.06488629  0.97276397     0.83500
O20         O  0.93771926  0.92701427  0.00246302    -0.78500
C21         C  0.96396616  0.05948795  0.07707762     0.83700
C22         C  0.07042250  0.96256351  0.07367583     0.84000
O23         O  0.03678695  0.96445220  0.08420656    -0.80900
O24         O  0.05908696  0.25079698  0.18206999    -0.78400
C25         C  0.07197374  0.18790880  0.28367115     0.82600
O26         O  0.94204720  0.19186150  0.20073724    -0.79600
O27         O  0.96756425  0.22644339  0.33011837    -0.81000
O28         O  0.02064435  0.33536871  0.27861537    -0.80800
O29         O  0.04378544  0.30968247  0.19063758    -0.79500
Zn30       Zn  0.03053145  0.22044752  0.21803937     1.55700
O31         O  0.02560669  0.29532568  0.32462645    -0.80900
Cd32       Cd  0.00498184  0.30415408  0.23310200     1.59700
Cd33       Cd  0.94678731  0.23441291  0.23911340     1.59600
O34         O  0.95391137  0.32599295  0.21746926    -0.80900
O35         O  0.99903997  0.25100822  0.24756640    -1.91400
Cd36       Cd  0.01279841  0.24500310  0.30083863     1.59900
O37         O  0.91537066  0.27843031  0.22208804    -0.80800
O38         O  0.05571328  0.20734693  0.30796497    -0.79500
C39         C  0.96799451  0.17451022  0.18464725     0.83100
C40         C  0.06186183  0.28469452  0.17370062     0.82700
O41         O  0.06485913  0.19109033  0.24955026    -0.78400
C42         C  0.02615496  0.32827822  0.31254738     0.83500
O43         O  0.00170769  0.18325166  0.18924473    -0.78500
C44         C  0.92132788  0.31242652  0.21613392     0.83700
C45         C  0.93464732  0.21730463  0.32173621     0.84000
O46         O  0.92347665  0.21765500  0.28841317    -0.80900
O47         O  0.75584998  0.18193416  0.56302023    -0.78400
C48         C  0.68884211  0.27767575  0.58180039     0.82600
O49         O  0.70489741  0.20116167  0.44528924    -0.79600
O50         O  0.72073145  0.33064329  0.47604786    -0.81000
O51         O  0.83450578  0.28806936  0.53410888    -0.80800
O52         O  0.81498367  0.19745537  0.55715958    -0.79500
Zn53       Zn  0.72448653  0.21722369  0.53558691     1.55700
O54         O  0.78981085  0.33005916  0.53611325    -0.80900
Cd55       Cd  0.80842784  0.23948754  0.51768471     1.59700
Cd56       Cd  0.74358640  0.24250351  0.45376623     1.59600
O57         O  0.83462630  0.22272222  0.46925527    -0.80900
O58         O  0.75465546  0.25020419  0.50728103    -1.91400
Cd59       Cd  0.74200775  0.30223244  0.52108544     1.59900
O60         O  0.79110837  0.22773825  0.42636090    -0.80800
O61         O  0.70426949  0.30404967  0.56448558    -0.79500
C62         C  0.68645540  0.18290403  0.46883107     0.83100
C63         C  0.78977886  0.17661476  0.57025180     0.82700
O64         O  0.69448087  0.24416468  0.57334226    -0.78400
C65         C  0.82381708  0.32117299  0.53920986     0.83500
O66         O  0.69082604  0.18731057  0.50329752    -0.78500
C67         C  0.82421389  0.22053696  0.43569972     0.83700
C68         C  0.71643605  0.32245476  0.44212969     0.84000
O69         O  0.72391302  0.29044580  0.42981447    -0.80900
O70         O  0.75390256  0.06050361  0.68673649    -0.78400
C71         C  0.68705728  0.96374126  0.67927220     0.82600
O72         O  0.69501185  0.04854476  0.80645031    -0.79600
O73         O  0.72433257  0.91905144  0.78825375    -0.81000
O74         O  0.83344719  0.96504248  0.72848543    -0.80800
O75         O  0.81286264  0.05189550  0.70157456    -0.79500
Zn76       Zn  0.72264899  0.02873712  0.71874485     1.55700
O77         O  0.79115367  0.92038722  0.72666836    -0.80900
Cd78       Cd  0.80528826  0.01236362  0.74297581     1.59700
Cd79       Cd  0.73803189  0.01078601  0.80348883     1.59600
O80         O  0.82936517  0.02971937  0.79182711    -0.80900
O81         O  0.75190141  0.99939904  0.75129263    -1.91400
Cd82       Cd  0.74190402  0.94588124  0.74078724     1.59900
O83         O  0.78348286  0.02956387  0.83241643    -0.80800
O84         O  0.70296789  0.93897068  0.69845374    -0.79500
C85         C  0.67781815  0.06425183  0.78020269     0.83100
C86         C  0.78806180  0.06712609  0.68183587     0.82700
O87         O  0.69289414  0.99777534  0.68464071    -0.78400
C88         C  0.82453115  0.93135141  0.72385487     0.83500
O89         O  0.68676712  0.05931343  0.74674111    -0.78500
C90         C  0.81747838  0.03402153  0.82461682     0.83700
C91         C  0.71906889  0.92953858  0.82134178     0.84000
O92         O  0.72242112  0.96322752  0.83067406    -0.80900
O93         O  0.18519263  0.00289184  0.19065141    -0.78400
C94         C  0.18012738  0.07572320  0.28674426     0.82600
O95         O  0.30295702  0.06269217  0.19760016    -0.79600
O96         O  0.29130190  0.03671561  0.32955200    -0.81000
O97         O  0.22708723  0.92999655  0.29256526    -0.80800
O98         O  0.20065055  0.94502660  0.20356965    -0.79500
Zn99       Zn  0.21583086  0.03547242  0.22254421     1.55700
O100        O  0.22451759  0.97586505  0.33316324    -0.80900
Cd101      Cd  0.24181370  0.95446702  0.24319579     1.59700
Cd102      Cd  0.30223903  0.02179415  0.23768979     1.59600
O103        O  0.29072616  0.92957947  0.22625807    -0.80900
O104        O  0.25033466  0.00836596  0.25184786    -1.91400
Cd105      Cd  0.24191232  0.02192493  0.30471141     1.59900
O106        O  0.33050595  0.97592503  0.21920071    -0.80800
O107        O  0.20271215  0.06377349  0.31086494    -0.79500
C108        C  0.27557874  0.07899866  0.18272673     0.83100
C109        C  0.18151413  0.96847787  0.18570555     0.82700
O110        O  0.18172456  0.06549583  0.25334098    -0.78400
C111        C  0.22179728  0.94181040  0.32525910     0.83500
O112        O  0.24235077  0.07054205  0.19020461    -0.78500
C113        C  0.32278197  0.94168969  0.21798868     0.83700
C114        C  0.32412823  0.04148004  0.31782461     0.84000
O115        O  0.33192100  0.03850959  0.28370244    -0.80900
O116        O  0.06303299  0.51402729  0.55530161    -0.78400
C117        C  0.06249938  0.58438157  0.46176842     0.82600
O118        O  0.93658317  0.56362972  0.54515110    -0.79600
O119        O  0.96122986  0.53656692  0.41558300    -0.81000
O120        O  0.02223654  0.43056686  0.45846291    -0.80800
O121        O  0.05298453  0.45458825  0.54386437    -0.79500
Zn122      Zn  0.02675719  0.54304946  0.52572098     1.55700
O123        O  0.02630752  0.47489897  0.41632434    -0.80900
Cd124      Cd  0.00897537  0.45843896  0.50688724     1.59700
Cd125      Cd  0.94325601  0.52092676  0.50662761     1.59600
O126        O  0.96291579  0.43175382  0.52812884    -0.80900
O127        O  0.99697893  0.51127466  0.49574639    -1.91400
Cd128      Cd  0.00915216  0.52224456  0.44292506     1.59900
O129        O  0.91784476  0.47325480  0.52617377    -0.80800
O130        O  0.04827012  0.56440974  0.43660143    -0.79500
C131        C  0.96158571  0.58117639  0.56274298     0.83100
C132        C  0.07116016  0.48023903  0.55967666     0.82700
O133        O  0.05579026  0.57865341  0.49557571    -0.78400
C134        C  0.02797669  0.44104021  0.42544577     0.83500
O135        O  0.99575153  0.57443163  0.55822583    -0.78500
C136        C  0.92908996  0.44064407  0.53275690     0.83700
C137        C  0.92723905  0.53875864  0.42461228     0.84000
O138        O  0.91649397  0.53403301  0.45772050    -0.80900
O139        O  0.43473419  0.30513423  0.75087521    -0.78400
C140        C  0.43040023  0.21397197  0.82581571     0.82600
O141        O  0.55595446  0.29745757  0.81299719    -0.79600
O142        O  0.53116853  0.16526352  0.78220664    -0.81000
O143        O  0.48249495  0.20991802  0.67416743    -0.80800
O144        O  0.45582794  0.29834295  0.69368679    -0.79500
Zn145      Zn  0.46786427  0.27637661  0.78387574     1.55700
O146        O  0.46991503  0.16839893  0.71737977    -0.80900
Cd147      Cd  0.49578681  0.25771784  0.70290508     1.59700
Cd148      Cd  0.55296243  0.25525255  0.77363031     1.59600
O149        O  0.54620656  0.27451996  0.68179734    -0.80900
O150        O  0.50065323  0.24598702  0.75658505    -1.91400
Cd151      Cd  0.48521643  0.19391220  0.76592525     1.59900
O152        O  0.58521880  0.27111612  0.72901179    -0.80800
O153        O  0.44476619  0.18830301  0.80667846    -0.79500
C154        C  0.52949411  0.31820757  0.82338913     0.83100
C155        C  0.43351643  0.31272678  0.71675644     0.82700
O156        O  0.43732005  0.24763169  0.81927352    -0.78400
C157        C  0.47331014  0.17732363  0.68366896     0.83500
O158        O  0.49641756  0.31211470  0.81341627    -0.78500
C159        C  0.57880517  0.27694354  0.69502149     0.83700
C160        C  0.56440984  0.17312552  0.79075165     0.84000
O161        O  0.57634890  0.20619735  0.79171127    -0.80900
O162        O  0.81822219  0.74652880  0.93802411    -0.78400
C163        C  0.72273064  0.81655675  0.93114207     0.82600
O164        O  0.80233084  0.79379086  0.06099716    -0.79600
O165        O  0.67089752  0.77278887  0.02881426    -0.81000
O166        O  0.71789926  0.66383460  0.96926557    -0.80800
O167        O  0.80754912  0.68703790  0.94825541    -0.79500
Zn168      Zn  0.78474555  0.77564576  0.97027313     1.55700
O169        O  0.67429144  0.70677608  0.96675804    -0.80900
Cd170      Cd  0.76484540  0.69169878  0.98690151     1.59700
Cd171      Cd  0.76025689  0.75514866  0.05207268     1.59600
O172        O  0.77912539  0.66502261  0.03510475    -0.80900
O173        O  0.75273598  0.74439886  0.99821028    -1.91400
Cd174      Cd  0.70040223  0.75483468  0.98348090     1.59900
O175        O  0.77275093  0.70669962  0.07975506    -0.80800
O176        O  0.69713187  0.79570251  0.94327253    -0.79500
C177        C  0.82249527  0.80956370  0.03694708     0.83100
C178        C  0.82545796  0.71277266  0.93235331     0.82700
O179        O  0.75639948  0.81196374  0.94009281    -0.78400
C180        C  0.68440190  0.67322381  0.96392607     0.83500
O181        O  0.81801005  0.80409872  0.00276161    -0.78500
C182        C  0.77913361  0.67384387  0.06910664     0.83700
C183        C  0.67860561  0.77845271  0.06253391     0.84000
O184        O  0.71137135  0.77415250  0.07486062    -0.80900
O185        O  0.31285549  0.24824513  0.94057850    -0.78400
C186        C  0.21376821  0.31077417  0.91611331     0.82600
O187        O  0.28895353  0.31042240  0.05240117    -0.79600
O188        O  0.16206752  0.28480920  0.02617579    -0.81000
O189        O  0.20611025  0.17116722  0.97168042    -0.80800
O190        O  0.29646036  0.18980575  0.94820312    -0.79500
Zn191      Zn  0.27504534  0.27958369  0.96460470     1.55700
O192        O  0.16383685  0.21553847  0.96842408    -0.80900
Cd193      Cd  0.25415914  0.19834112  0.98688571     1.59700
Cd194      Cd  0.25201743  0.26662613  0.04751871     1.59600
O195        O  0.26997585  0.17502069  0.03648066    -0.80900
O196        O  0.24294694  0.25194459  0.99508109    -1.91400
Cd197      Cd  0.19064448  0.26394578  0.98119522     1.59900
O198        O  0.27016660  0.22153799  0.07672329    -0.80800
O199        O  0.18703967  0.29907639  0.93573381    -0.79500
C200        C  0.30431169  0.32815170  0.02634275     0.83100
C201        C  0.31780157  0.21416343  0.93448629     0.82700
O202        O  0.24713929  0.30439430  0.92485980    -0.78400
C203        C  0.17279198  0.18170609  0.96685875     0.83500
O204        O  0.30065728  0.31836405  0.99300007    -0.78500
C205        C  0.27449016  0.18755814  0.06896978     0.83700
C206        C  0.17038388  0.28846617  0.06013722     0.84000
O207        O  0.20294709  0.28239086  0.07202664    -0.80900
O208        O  0.74299878  0.43601744  0.32109706    -0.78400
C209        C  0.80658008  0.42087118  0.21978925     0.82600
O210        O  0.79370955  0.55320254  0.30066409    -0.79600
O211        O  0.76652462  0.52639957  0.17182924    -0.81000
O212        O  0.65928977  0.46303691  0.22029411    -0.80800
O213        O  0.68312155  0.44491080  0.31009242    -0.79500
Zn214      Zn  0.77194320  0.46336946  0.28332621     1.55700
O215        O  0.70143939  0.46349691  0.17573253    -0.80900
Cd216      Cd  0.68744371  0.48242340  0.26630814     1.59700
Cd217      Cd  0.75184174  0.54653460  0.26178812     1.59600
O218        O  0.66126006  0.53152867  0.27994363    -0.80900
O219        O  0.74036560  0.49301874  0.25316758    -1.91400
Cd220      Cd  0.75024582  0.48015537  0.20047914     1.59900
O221        O  0.70483233  0.57471444  0.27765974    -0.80800
O222        O  0.79061747  0.43945460  0.19465741    -0.79500
C223        C  0.81393701  0.52860832  0.31547588     0.83100
C224        C  0.70919757  0.43041312  0.32880112     0.82700
O225        O  0.80047977  0.42679713  0.25372321    -0.78400
C226        C  0.66832041  0.45858318  0.18660713     0.83500
O227        O  0.80862224  0.49445443  0.30997679    -0.78500
C228        C  0.67121014  0.56515317  0.28208699     0.83700
C229        C  0.77072462  0.56022959  0.17997149     0.84000
O230        O  0.76739340  0.57173628  0.21297327    -0.80900
O231        O  0.44353519  0.93845284  0.49387254    -0.78400
C232        C  0.44020168  0.03332613  0.42500723     0.82600
O233        O  0.56846717  0.94909484  0.44379983    -0.79600
O234        O  0.54355272  0.08024616  0.46565042    -0.81000
O235        O  0.48274337  0.03570710  0.57535204    -0.77600
O236        O  0.45563618  0.94917460  0.55302075    -0.79500
Zn237      Zn  0.47813603  0.96946927  0.46407279     1.55700
O238        O  0.48168274  0.07959490  0.53280213    -0.80900
Cd239      Cd  0.49797321  0.98814839  0.54782739     1.59700
Cd240      Cd  0.56177787  0.99003689  0.48347270     1.59600
O241        O  0.54587000  0.96964834  0.57393812    -0.80900
O242        O  0.50842396  0.00005359  0.49487082    -1.91400
Cd243      Cd  0.49666873  0.05304465  0.48446081     1.59900
O244        O  0.58908857  0.97355384  0.53074072    -0.80800
O245        O  0.45478360  0.05814511  0.44519911    -0.79500
C246        C  0.54342488  0.92937679  0.42896286     0.83100
C247        C  0.43756822  0.93254726  0.52783165     0.82700
O248        O  0.44795374  0.99939703  0.42885349    -0.78400
C249        C  0.47819695  0.06929915  0.56612836     0.83500
O250        O  0.50928628  0.93473854  0.43525832    -0.78500
C251        C  0.57957415  0.96688314  0.56378893     0.83700
C252        C  0.57720503  0.07071569  0.46107242     0.84000
O253        O  0.58764380  0.03768436  0.46633608    -0.80900
O254        O  0.00147036  0.69242108  0.68111740    -0.78400
C255        C  0.07843559  0.78061930  0.68728822     0.82600
O256        O  0.05918968  0.69117242  0.80506434    -0.79600
O257        O  0.03581601  0.82367209  0.79067367    -0.81000
O258        O  0.92608830  0.78708352  0.73064709    -0.80800
O259        O  0.94304379  0.70094274  0.69822896    -0.79500
Zn260      Zn  0.03400339  0.71651607  0.71851452     1.55700
O261        O  0.97227436  0.82750455  0.72694704    -0.80900
Cd262      Cd  0.95174182  0.73716968  0.74242278     1.59700
Cd263      Cd  0.01954985  0.73310781  0.80382222     1.59600
O264        O  0.92667020  0.71743925  0.78991651    -0.80900
O265        O  0.00587367  0.74607966  0.75184417    -1.91400
Cd266      Cd  0.01860623  0.79881222  0.74257015     1.59900
O267        O  0.97239686  0.71561851  0.83115922    -0.80800
O268        O  0.05978491  0.80546611  0.70350861    -0.79500
C269        C  0.07072805  0.67120771  0.77853516     0.83100
C270        C  0.96699316  0.68745248  0.67627649     0.82700
O271        O  0.07160986  0.74657397  0.69173856    -0.78400
C272        C  0.93798411  0.81982006  0.72569467     0.83500
O273        O  0.06157854  0.67745928  0.74534471    -0.78500
C274        C  0.93839736  0.71162786  0.82252262     0.83700
C275        C  0.04119298  0.81321765  0.82371681     0.84000
O276        O  0.03749984  0.77951096  0.83285403    -0.80900
O277        O  0.44433629  0.82717175  0.25095978    -0.78400
C278        C  0.42707507  0.72723214  0.31577601     0.82600
O279        O  0.56269818  0.80474692  0.29871176    -0.79600
O280        O  0.53245411  0.67803861  0.27853661    -0.81000
O281        O  0.46873187  0.72023354  0.16904204    -0.80800
O282        O  0.44695064  0.81025556  0.19203067    -0.79500
Zn283      Zn  0.47124042  0.78904478  0.27988969     1.55700
O284        O  0.47035108  0.67827467  0.21340285    -0.80900
Cd285      Cd  0.48632899  0.76817693  0.19550502     1.59700
Cd286      Cd  0.55356219  0.76631617  0.25692469     1.59600
O287        O  0.53354041  0.78406030  0.16715802    -0.80900
O288        O  0.49934603  0.75765100  0.24818865    -1.91400
Cd289      Cd  0.48638162  0.70573495  0.26052690     1.59900
O290        O  0.57890973  0.78253471  0.20853369    -0.80800
O291        O  0.44532578  0.70158216  0.30031792    -0.79500
C292        C  0.53888910  0.81917860  0.32014708     0.83100
C293        C  0.43543846  0.83170322  0.21741098     0.82700
O294        O  0.43359202  0.76101191  0.30927923    -0.78400
C295        C  0.46550896  0.68691356  0.17982772     0.83500
O296        O  0.50436322  0.81428597  0.31569583    -0.78500
C297        C  0.56763229  0.78741664  0.17567129     0.83700
C298        C  0.56686581  0.68544392  0.27970386     0.84000
O299        O  0.57909959  0.71743833  0.27202895    -0.80900
O300        O  0.19341827  0.75213999  0.56893996    -0.78400
C301        C  0.17540733  0.69246040  0.46599065     0.82600
O302        O  0.30857512  0.70045577  0.55202777    -0.79600
O303        O  0.28484107  0.72734371  0.42180982    -0.81000
O304        O  0.22170041  0.83600864  0.46934280    -0.80800
O305        O  0.20273713  0.81181587  0.55839575    -0.79500
Zn306      Zn  0.21960672  0.72291035  0.53089699     1.55700
O307        O  0.22488409  0.79476151  0.42419905    -0.80900
Cd308      Cd  0.24038010  0.80751779  0.51510519     1.59700
Cd309      Cd  0.30385785  0.74253392  0.51254873     1.59600
O310        O  0.28914142  0.83409017  0.52971162    -0.80900
O311        O  0.25062568  0.75454169  0.50216585    -1.91400
Cd312      Cd  0.23855333  0.74552171  0.44916893     1.59900
O313        O  0.33158098  0.78981832  0.52970432    -0.80800
O314        O  0.19537419  0.70801740  0.44166595    -0.79500
C315        C  0.28322290  0.67981210  0.56518161     0.83100
C316        C  0.18830278  0.78579804  0.57702231     0.82700
O317        O  0.18137759  0.69699537  0.50020080    -0.78400
C318        C  0.21915210  0.82750329  0.43535314     0.83500
O319        O  0.24925939  0.68493302  0.55769507    -0.78500
C320        C  0.32250282  0.82358311  0.53371401     0.83700
C321        C  0.31866499  0.72277480  0.43051991     0.84000
O322        O  0.32987401  0.72680919  0.46362089    -0.80900
O323        O  0.31570823  0.42877864  0.74303284    -0.78400
C324        C  0.32176724  0.52637471  0.81062162     0.82600
O325        O  0.19270077  0.43597867  0.78544352    -0.79600
O326        O  0.21465414  0.57045289  0.77051559    -0.81000
O327        O  0.28603188  0.53049750  0.66280391    -0.80800
O328        O  0.30786644  0.44115819  0.68357648    -0.79500
Zn329      Zn  0.28303733  0.46202639  0.77214646     1.55700
O330        O  0.27920380  0.57406150  0.70547546    -0.80900
Cd331      Cd  0.26789583  0.48261438  0.68804118     1.59700
Cd332      Cd  0.20017528  0.47987095  0.74900569     1.59600
O333        O  0.22106627  0.46879653  0.65817895    -0.80900
O334        O  0.25371783  0.49252005  0.74063325    -1.91400
Cd335      Cd  0.26324372  0.54575081  0.75285840     1.59900
O336        O  0.17516131  0.46760535  0.69920283    -0.80800
O337        O  0.30394444  0.55141753  0.79357756    -0.79500
C338        C  0.21746510  0.41927073  0.80393212     0.83100
C339        C  0.32302749  0.42278629  0.70937661     0.82700
O340        O  0.31553533  0.49231262  0.80506405    -0.78400
C341        C  0.28693198  0.56422439  0.67262675     0.83500
O342        O  0.25141505  0.42813912  0.80162813    -0.78500
C343        C  0.18692757  0.46524541  0.66623073     0.83700
C344        C  0.18156389  0.55906898  0.77470151     0.84000
O345        O  0.17257601  0.52561048  0.76875225    -0.80900
O346        O  0.49353833  0.43684922  0.93914148    -0.78400
C347        C  0.41555829  0.43833162  0.03034607     0.82600
O348        O  0.44336682  0.55902356  0.94459979    -0.79600
O349        O  0.46406557  0.54030427  0.07759428    -0.81000
O350        O  0.56815790  0.46853165  0.04240757    -0.80800
O351        O  0.55279032  0.44620936  0.95210229    -0.79500
Zn352      Zn  0.46285835  0.47027203  0.96901685     1.55700
O353        O  0.52160563  0.46994098  0.08233271    -0.80900
Cd354      Cd  0.54569987  0.48649183  0.99296217     1.59700
Cd355      Cd  0.48289182  0.55315864  0.98693858     1.59600
O356        O  0.57508772  0.53299935  0.97722805    -0.80900
O357        O  0.49227430  0.50023935  0.00039221    -1.91400
Cd358      Cd  0.47724510  0.49072152  0.05270928     1.59900
O359        O  0.53250122  0.57660394  0.97046130    -0.80800
O360        O  0.43211742  0.45487781  0.05655708    -0.79500
C361        C  0.42854955  0.53328914  0.92570588     0.83100
C362        C  0.52752583  0.43023276  0.93352076     0.82700
O363        O  0.42578295  0.44196601  0.99711763    -0.78400
C364        C  0.55551988  0.46409401  0.07492369     0.83500
O365        O  0.43482368  0.49968004  0.93271082    -0.78500
C366        C  0.56608231  0.56605570  0.96932842     0.83700
C367        C  0.46205742  0.57375925  0.06703456     0.84000
O368        O  0.46729465  0.58259423  0.03349442    -0.80900
C369        C  0.34390391  0.55674262  0.86859903    -0.09100
C370        C  0.35149552  0.53601492  0.83679152     0.07100
C371        C  0.38675997  0.52025523  0.83250421    -0.02900
C372        C  0.41261675  0.52269154  0.86086753    -0.07300
C373        C  0.40425333  0.54084570  0.89390394     0.06200
C374        C  0.37005932  0.55916111  0.89723516    -0.02400
Br375      Br  0.35635117  0.58392277  0.94176972    -0.02000
H376        H  0.31684085  0.56892469  0.87223362     0.10100
H377        H  0.43884626  0.50861969  0.85784895     0.08100
Br378      Br  0.40053056  0.49380372  0.78879317    -0.02500
C379        C  0.30653792  0.65609702  0.62527778    -0.09100
C380        C  0.29229928  0.64898755  0.59005126     0.07100
C381        C  0.28133090  0.61293375  0.58105385    -0.02900
C382        C  0.28232194  0.58525013  0.60772421    -0.07300
C383        C  0.29373600  0.59276202  0.64399234     0.06200
C384        C  0.30738902  0.62836238  0.65222360    -0.02400
Br385      Br  0.32756010  0.64077286  0.69950696    -0.02000
H386        H  0.31527067  0.68372706  0.63243950     0.10100
H387        H  0.27208302  0.55816909  0.60044808     0.08100
Br388      Br  0.26356217  0.60055625  0.53279229    -0.02500
C389        C  0.45229854  0.66711705  0.11514033    -0.09100
C390        C  0.45831059  0.65726406  0.15213349     0.07100
C391        C  0.46086078  0.61926108  0.16074808    -0.02900
C392        C  0.45954894  0.59297665  0.13267746    -0.07300
C393        C  0.45626088  0.60295720  0.09545131     0.06200
C394        C  0.45129889  0.64068149  0.08698411    -0.02400
Br395      Br  0.44364775  0.65881032  0.03789850    -0.02000
H396        H  0.44957903  0.69584279  0.10768067     0.10100
H397        H  0.46303277  0.56434681  0.14020122     0.08100
Br398      Br  0.46880151  0.59998713  0.20944615    -0.02500
C399        C  0.33528186  0.72632530  0.36431610    -0.09100
C400        C  0.34565164  0.71608914  0.40028197     0.07100
C401        C  0.38235122  0.70390769  0.40629983    -0.02900
C402        C  0.40811930  0.70512672  0.37747965    -0.07300
C403        C  0.39808272  0.71836590  0.34267344     0.06200
C404        C  0.36111800  0.72782098  0.33585428    -0.02400
Br405      Br  0.34495932  0.74427272  0.28832021    -0.02000
H406        H  0.30735141  0.73532203  0.35852506     0.10100
H407        H  0.43656794  0.69749431  0.38278663     0.08100
Br408      Br  0.39951445  0.68577124  0.45286810    -0.02500
C409        C  0.14322056  0.77307376  0.66864904    -0.09100
C410        C  0.10920262  0.79050025  0.66285477     0.07100
C411        C  0.10418199  0.81248608  0.63131569    -0.02900
C412        C  0.13197639  0.81380653  0.60443785    -0.07300
C413        C  0.16468492  0.79355484  0.60894277     0.06200
C414        C  0.17099258  0.77475232  0.64220015    -0.02400
Br415      Br  0.21657529  0.74945126  0.65197021    -0.02000
H416        H  0.14758797  0.75668520  0.69316558     0.10100
H417        H  0.12685109  0.82825139  0.57888485     0.08100
Br418      Br  0.05837611  0.83720763  0.62164346    -0.02500
C419        C  0.11619164  0.57852985  0.76963915    -0.09100
C420        C  0.15181589  0.58587105  0.78330771     0.07100
C421        C  0.15845225  0.62008303  0.80082208    -0.02900
C422        C  0.13050541  0.64683683  0.80184971    -0.07300
C423        C  0.09610869  0.64028564  0.78527444     0.06200
C424        C  0.08869136  0.60540240  0.77012731    -0.02400
Br425      Br  0.04175858  0.59354156  0.74835001    -0.02000
H426        H  0.11017907  0.55249121  0.75635810     0.10100
H427        H  0.13640565  0.67359102  0.81368889     0.08100
Br428      Br  0.20492204  0.63231631  0.82331411    -0.02500
C429        C  0.53627927  0.86442130  0.41249180    -0.09100
C430        C  0.55284107  0.89838197  0.40467740     0.07100
C431        C  0.57197238  0.90297917  0.37122027    -0.02900
C432        C  0.57051896  0.87503672  0.34450577    -0.07300
C433        C  0.55037576  0.84264374  0.35110214     0.06200
C434        C  0.53516259  0.83657390  0.38620178    -0.02400
Br435      Br  0.51061492  0.79143710  0.39890185    -0.02000
H436        H  0.52220279  0.86031214  0.43848463     0.10100
H437        H  0.58249897  0.87986613  0.31763420     0.08100
Br438      Br  0.59639341  0.94821305  0.35908625    -0.02500
C439        C  0.37415254  0.91477316  0.54783774    -0.09100
C440        C  0.40987475  0.90436976  0.53723768     0.07100
C441        C  0.41733379  0.86712896  0.53015714    -0.02900
C442        C  0.38897812  0.84109315  0.53197180    -0.07300
C443        C  0.35232988  0.85143166  0.53994519     0.06200
C444        C  0.34535598  0.88880020  0.54925233    -0.02400
Br445      Br  0.29748562  0.90691050  0.56324087    -0.02000
H446        H  0.36822056  0.94349642  0.55326827     0.10100
H447        H  0.39548115  0.81287329  0.52489138     0.08100
Br448      Br  0.46565121  0.85093498  0.51557020    -0.02500
C449        C  0.60171048  0.45666707  0.16912077    -0.09100
C450        C  0.63876836  0.45086502  0.15897005     0.07100
C451        C  0.64647944  0.44262497  0.12168606    -0.02900
C452        C  0.61827660  0.44450112  0.09537898    -0.07300
C453        C  0.58190894  0.45426589  0.10498283     0.06200
C454        C  0.57342867  0.45837987  0.14285151    -0.02400
Br455      Br  0.52485614  0.46914159  0.16145472    -0.02000
H456        H  0.59474821  0.46217473  0.19757708     0.10100
H457        H  0.62537796  0.43973427  0.06682401     0.08100
Br458      Br  0.69471976  0.42936828  0.10393601    -0.02500
C459        C  0.58085552  0.61881674  0.27934003    -0.09100
C460        C  0.59300029  0.65476396  0.28698326     0.07100
C461        C  0.63024460  0.66009727  0.29742084    -0.02900
C462        C  0.65463313  0.63011209  0.29775810    -0.07300
C463        C  0.64295870  0.59447776  0.28760803     0.06200
C464        C  0.60515531  0.58902588  0.27906703    -0.02400
Br465      Br  0.58452415  0.54304853  0.26258074    -0.02000
H466        H  0.55247662  0.61393856  0.27111733     0.10100
H467        H  0.68328282  0.63502486  0.30492720     0.08100
Br468      Br  0.64983324  0.70727667  0.31143033    -0.02500
C469        C  0.23233869  0.35727737  0.82586211    -0.09100
C470        C  0.20842603  0.38752869  0.82765298     0.07100
C471        C  0.18050774  0.38802451  0.85473882    -0.02900
C472        C  0.18038765  0.36094917  0.88241199    -0.07300
C473        C  0.20728129  0.33299869  0.88269976     0.06200
C474        C  0.23163701  0.32993198  0.85257080    -0.02400
Br475      Br  0.26540792  0.28947121  0.84664131    -0.02000
H476        H  0.25288865  0.35566889  0.80424030     0.10100
H477        H  0.16086788  0.36314457  0.90488335     0.08100
Br478      Br  0.14425417  0.42639554  0.85701071    -0.02500
C479        C  0.35427470  0.41729796  0.01084469    -0.09100
C480        C  0.38284311  0.41498945  0.03681671     0.07100
C481        C  0.38130694  0.38744036  0.06408734    -0.02900
C482        C  0.35348163  0.36046503  0.06237679    -0.07300
C483        C  0.32730254  0.36080654  0.03377562     0.06200
C484        C  0.32668080  0.39074424  0.00913938    -0.02400
Br485      Br  0.28966773  0.39635671  0.97147571    -0.02000
H486        H  0.35443564  0.43902836  0.99042617     0.10100
H487        H  0.35393496  0.33784089  0.08175633     0.08100
Br488      Br  0.41846631  0.38298947  0.10144160    -0.02500
C489        C  0.61857969  0.65597389  0.95311555    -0.09100
C490        C  0.65548475  0.64450047  0.95729845     0.07100
C491        C  0.66252131  0.60618654  0.95963346    -0.02900
C492        C  0.63297991  0.58127866  0.96137301    -0.07300
C493        C  0.59595174  0.59316895  0.96064185     0.06200
C494        C  0.58907718  0.63109471  0.95466161    -0.02400
Br495      Br  0.54055254  0.65216416  0.94980915    -0.02000
H496        H  0.61223065  0.68495528  0.95022312     0.10100
H497        H  0.63926234  0.55233830  0.96476806     0.08100
Br498      Br  0.71120051  0.58509041  0.96217727    -0.02500
C499        C  0.65864495  0.79977265  0.12456872    -0.09100
C500        C  0.64867153  0.78830901  0.08892944     0.07100
C501        C  0.61063712  0.78310261  0.08107366    -0.02900
C502        C  0.58456517  0.78589240  0.10934535    -0.07300
C503        C  0.59509223  0.79371772  0.14578495     0.06200
C504        C  0.63250811  0.80265013  0.15277152    -0.02400
Br505      Br  0.65047692  0.81854588  0.19996425    -0.02000
H506        H  0.68734471  0.80532098  0.13107826     0.10100
H507        H  0.55598586  0.77962301  0.10297876     0.08100
Br508      Br  0.59161813  0.76921212  0.03358208    -0.02500
C509        C  0.76984628  0.60893914  0.08728729    -0.09100
C510        C  0.78309139  0.64403604  0.09674881     0.07100
C511        C  0.79569581  0.65010640  0.13303469    -0.02900
C512        C  0.79303199  0.62190333  0.15921297    -0.07300
C513        C  0.77782788  0.58736154  0.15018203     0.06200
C514        C  0.76672571  0.58092923  0.11335414    -0.02400
Br515      Br  0.74319473  0.53638912  0.09668343    -0.02000
H516        H  0.75963199  0.60373263  0.05972950     0.10100
H517        H  0.80219372  0.62736497  0.18707345     0.08100
Br518      Br  0.81719787  0.69589088  0.14859242    -0.02500
C519        C  0.84980618  0.68671748  0.87370658    -0.09100
C520        C  0.85634811  0.70449090  0.90734411     0.07100
C521        C  0.89152965  0.71947256  0.91441843    -0.02900
C522        C  0.91872698  0.71865732  0.88727159    -0.07300
C523        C  0.91142215  0.70384396  0.85229116     0.06200
C524        C  0.87694423  0.68645369  0.84607441    -0.02400
Br525      Br  0.86509860  0.66242253  0.80052430    -0.02000
H526        H  0.82285646  0.67494456  0.86810177     0.10100
H527        H  0.94494506  0.73197587  0.89288371     0.08100
Br528      Br  0.90323435  0.74320260  0.96022171    -0.02500
C529        C  0.56091352  0.34821808  0.87731869    -0.09100
C530        C  0.53591601  0.35027426  0.84767166     0.07100
C531        C  0.51364499  0.38196524  0.84396694    -0.02900
C532        C  0.51396608  0.40872453  0.87124364    -0.07300
C533        C  0.53600829  0.40506578  0.90273130     0.06200
C534        C  0.56112967  0.37549059  0.90490480    -0.02400
Br535      Br  0.59337313  0.36928622  0.94628867    -0.02000
H536        H  0.57852596  0.32431123  0.88030674     0.10100
H537        H  0.49540421  0.43199426  0.86857402     0.08100
Br538      Br  0.48091229  0.39032629  0.80298928    -0.02500
C539        C  0.46357824  0.16002046  0.61790343    -0.09100
C540        C  0.46864343  0.14875059  0.65456207     0.07100
C541        C  0.47307558  0.11068268  0.66169152    -0.02900
C542        C  0.47375251  0.08556747  0.63254020    -0.07300
C543        C  0.47095892  0.09701513  0.59566802     0.06200
C544        C  0.46475448  0.13488643  0.58864429    -0.02400
Br545      Br  0.45860569  0.15521684  0.54021161    -0.02000
H546        H  0.45978048  0.18893245  0.61170802     0.10100
H547        H  0.47845338  0.05684568  0.63896193     0.08100
Br548      Br  0.48230898  0.09043753  0.70973606    -0.02500
C549        C  0.38267382  0.22334951  0.91714096    -0.09100
C550        C  0.34951232  0.20436746  0.91084666     0.07100
C551        C  0.34590011  0.18288294  0.87865823    -0.02900
C552        C  0.37404109  0.18357723  0.85193904    -0.07300
C553        C  0.40554730  0.20570904  0.85693776     0.06200
C554        C  0.41045193  0.22423140  0.89067064    -0.02400
Br555      Br  0.45388154  0.25283897  0.90143902    -0.02000
H556        H  0.38607741  0.23954396  0.94198094     0.10100
H557        H  0.37002278  0.16909888  0.82617727     0.08100
Br558      Br  0.30150093  0.15610817  0.86785167    -0.02500
C559        C  0.36799106  0.32981872  0.71222731    -0.09100
C560        C  0.40488430  0.33884040  0.70480024     0.07100
C561        C  0.41371164  0.37484085  0.69331997    -0.02900
C562        C  0.38585083  0.40167340  0.69142426    -0.07300
C563        C  0.34934554  0.39303089  0.70124534     0.06200
C564        C  0.34035195  0.35653071  0.71062722    -0.02400
Br565      Br  0.29109554  0.34249657  0.72431606    -0.02000
H566        H  0.36099533  0.30234144  0.72149932     0.10100
H567        H  0.39320295  0.42986492  0.68505249     0.08100
Br568      Br  0.46386825  0.38974510  0.68492455    -0.02500
C569        C  0.09899356  0.44586473  0.61221680    -0.09100
C570        C  0.10291965  0.47137232  0.58350236     0.07100
C571        C  0.13653850  0.49064307  0.57971583    -0.02900
C572        C  0.16465600  0.48576755  0.60553105    -0.07300
C573        C  0.15974697  0.46255498  0.63596596     0.06200
C574        C  0.12695328  0.44164709  0.63867213    -0.02400
Br575      Br  0.11898893  0.40724918  0.67789385    -0.02000
H576        H  0.07343502  0.43058745  0.61514445     0.10100
H577        H  0.18966323  0.50200903  0.60294903     0.08100
Br578      Br  0.14536589  0.52464839  0.54017564    -0.02500
C579        C  0.83648488  0.55549946  0.37407122    -0.09100
C580        C  0.84437350  0.53896598  0.34014489     0.07100
C581        C  0.88060859  0.52731290  0.33258434    -0.02900
C582        C  0.90777915  0.52993349  0.35974808    -0.07300
C583        C  0.89940948  0.54367370  0.39499106     0.06200
C584        C  0.86362923  0.55794232  0.40152191    -0.02400
Br585      Br  0.84992246  0.58085942  0.44711584    -0.02000
H586        H  0.80864665  0.56474793  0.37994482     0.10100
H587        H  0.93504967  0.51919024  0.35379925     0.08100
Br588      Br  0.89387384  0.50646850  0.28581423    -0.02500
C589        C  0.12205925  0.60780616  0.43647763    -0.09100
C590        C  0.08769341  0.61505324  0.45285234     0.07100
C591        C  0.08076504  0.65040222  0.46723507    -0.02900
C592        C  0.10913881  0.67646695  0.46873173    -0.07300
C593        C  0.14447192  0.66821628  0.45529615     0.06200
C594        C  0.15042147  0.63424591  0.43746901    -0.02400
Br595      Br  0.19797905  0.62113520  0.41828572    -0.02000
H596        H  0.12777673  0.58069014  0.42545648     0.10100
H597        H  0.10407771  0.70269554  0.48202220     0.08100
Br598      Br  0.03326792  0.66372450  0.48659970    -0.02500
C599        C  0.93542461  0.63236390  0.64956819    -0.09100
C600        C  0.95573079  0.66495479  0.64432058     0.07100
C601        C  0.97105135  0.67220362  0.60945846    -0.02900
C602        C  0.96933586  0.64553531  0.58188795    -0.07300
C603        C  0.95233358  0.61143691  0.58819155     0.06200
C604        C  0.93368437  0.60552549  0.62167802    -0.02400
Br605      Br  0.90976689  0.55961648  0.63208204    -0.02000
H606        H  0.92354509  0.62644612  0.67625818     0.10100
H607        H  0.98339716  0.65056097  0.55608424     0.08100
Br608      Br  0.99661943  0.71732951  0.59878715    -0.02500
C609        C  0.37800237  0.05580426  0.40723109    -0.09100
C610        C  0.41297537  0.04322420  0.39659591     0.07100
C611        C  0.41957833  0.03498509  0.35940440    -0.02900
C612        C  0.39086392  0.03748507  0.33379379    -0.07300
C613        C  0.35480026  0.04722516  0.34465045     0.06200
C614        C  0.34886005  0.05764179  0.38181481    -0.02400
Br615      Br  0.30178934  0.07348665  0.40042003    -0.02000
H616        H  0.37275090  0.06217449  0.43588793     0.10100
H617        H  0.39646055  0.02951602  0.30561945     0.08100
Br618      Br  0.46712272  0.01860871  0.34264377    -0.02500
C619        C  0.26374958  0.16890332  0.13320573    -0.09100
C620        C  0.28126868  0.16162205  0.09952306     0.07100
C621        C  0.30090127  0.12827328  0.09518373    -0.02900
C622        C  0.30124371  0.10241491  0.12380749    -0.07300
C623        C  0.28145534  0.10893700  0.15631566     0.06200
C624        C  0.26320673  0.14277029  0.16118035    -0.02400
Br625      Br  0.23576581  0.15412464  0.20503749    -0.02000
H626        H  0.24839619  0.19420357  0.13709451     0.10100
H627        H  0.31524107  0.07635858  0.11986621     0.08100
Br628      Br  0.32720241  0.11629528  0.05092083    -0.02500
C629        C  0.21887750  0.89387323  0.41853630    -0.09100
C630        C  0.21236925  0.85719002  0.40794372     0.07100
C631        C  0.20377677  0.84991643  0.37064803    -0.02900
C632        C  0.20478707  0.87841704  0.34484078    -0.07300
C633        C  0.21431103  0.91457685  0.35493497     0.06200
C634        C  0.22008361  0.92238373  0.39272694    -0.02400
Br635      Br  0.23299368  0.97021214  0.41162758    -0.02000
H636        H  0.22524288  0.90034629  0.44694407     0.10100
H637        H  0.19926881  0.87182294  0.31628467     0.08100
Br638      Br  0.19095580  0.80194291  0.35224713    -0.02500
C639        C  0.38893098  0.92421509  0.22167730    -0.09100
C640        C  0.35297690  0.91524127  0.20993140     0.07100
C641        C  0.34653116  0.87998613  0.19467396    -0.02900
C642        C  0.37500174  0.85382007  0.19410756    -0.07300
C643        C  0.40980777  0.86199545  0.20898569     0.06200
C644        C  0.41706741  0.89790917  0.22164156    -0.02400
Br645      Br  0.46464387  0.91188724  0.24059891    -0.02000
H646        H  0.39473474  0.95114841  0.23314890     0.10100
H647        H  0.36920883  0.82627093  0.18419639     0.08100
Br648      Br  0.29952146  0.86562007  0.17479733    -0.02500
C649        C  0.88996666  0.91263763  0.73129239    -0.09100
C650        C  0.85448145  0.90399227  0.71812638     0.07100
C651        C  0.84816523  0.86846259  0.70350733    -0.02900
C652        C  0.87619782  0.84191843  0.70489689    -0.07300
C653        C  0.91098210  0.85001667  0.72013939     0.06200
C654        C  0.91800835  0.88630841  0.73253889    -0.02400
Br655      Br  0.96365734  0.90160903  0.75514756    -0.02000
H656        H  0.89557187  0.93965365  0.74266504     0.10100
H657        H  0.87052520  0.81453078  0.69448945     0.08100
Br658      Br  0.80240496  0.85436927  0.68064639    -0.02500
C659        C  0.58653061  0.11275605  0.77009375    -0.09100
C660        C  0.59066102  0.14232584  0.79462443     0.07100
C661        C  0.62172269  0.14330902  0.81807474    -0.02900
C662        C  0.64916185  0.11621893  0.81479679    -0.07300
C663        C  0.64627238  0.08857190  0.78790720     0.06200
C664        C  0.61397732  0.08627324  0.76633587    -0.02400
Br665      Br  0.60584735  0.04802513  0.73061513    -0.02000
H666        H  0.56275002  0.11132663  0.75199618     0.10100
H667        H  0.67357930  0.11781481  0.83199812     0.08100
Br668      Br  0.62779277  0.18066347  0.85489316    -0.02500
C669        C  0.67257182  0.95790268  0.61323530    -0.09100
C670        C  0.66096388  0.95408553  0.64973680     0.07100
C671        C  0.62317298  0.94961577  0.65718463    -0.02900
C672        C  0.59737468  0.95132799  0.62847785    -0.07300
C673        C  0.60848941  0.95788039  0.59185786     0.06200
C674        C  0.64702900  0.95948637  0.58428817    -0.02400
Br675      Br  0.66773999  0.96630345  0.53602767    -0.02000
H676        H  0.70169696  0.96175506  0.60740246     0.10100
H677        H  0.56830879  0.94945681  0.63531662     0.08100
Br678      Br  0.60541731  0.94467441  0.70663462    -0.02500
C679        C  0.72342292  0.91020725  0.88676886    -0.09100
C680        C  0.71221431  0.90171902  0.85062357     0.07100
C681        C  0.69880232  0.86581522  0.84320694    -0.02900
C682        C  0.69973959  0.83883277  0.87077450    -0.07300
C683        C  0.71408027  0.84682961  0.90568091     0.06200
C684        C  0.72468018  0.88314911  0.91402111    -0.02400
Br685      Br  0.74205553  0.89688371  0.96208968    -0.02000
H686        H  0.73332630  0.93753618  0.89352255     0.10100
H687        H  0.69111870  0.81100152  0.86430671     0.08100
Br688      Br  0.67928476  0.85141907  0.79622314    -0.02500
C689        C  0.59472382  0.13683491  0.45530951    -0.09100
C690        C  0.60529688  0.09958248  0.45273366     0.07100
C691        C  0.64330234  0.09139825  0.44740400    -0.02900
C692        C  0.66966877  0.11955037  0.45008825    -0.07300
C693        C  0.65886035  0.15593862  0.45661990     0.06200
C694        C  0.62118017  0.16482522  0.45714060    -0.02400
Br695      Br  0.60495741  0.21478524  0.46267177    -0.02000
H696        H  0.56590307  0.14427149  0.45819729     0.10100
H697        H  0.69879415  0.11275420  0.44878260     0.08100
Br698      Br  0.66173990  0.04281025  0.43718341    -0.02500
C699        C  0.83912562  0.38770457  0.54859761    -0.09100
C700        C  0.85154542  0.35101672  0.54621135     0.07100
C701        C  0.89017537  0.34475207  0.54672088    -0.02900
C702        C  0.91469459  0.37454911  0.54498173    -0.07300
C703        C  0.90210318  0.41117030  0.54319767     0.06200
C704        C  0.86372237  0.41753115  0.54747297    -0.02400
Br705      Br  0.84218387  0.46574729  0.55136211    -0.02000
H706        H  0.80980309  0.39353984  0.54987876     0.10100
H707        H  0.94398905  0.36867353  0.54334901     0.08100
Br708      Br  0.91230374  0.29669176  0.54852266    -0.02500
C709        C  0.68518520  0.37172307  0.35493463    -0.09100
C710        C  0.70141384  0.40635335  0.36051170     0.07100
C711        C  0.71676400  0.41472970  0.39511503    -0.02900
C712        C  0.71846173  0.38778728  0.42246089    -0.07300
C713        C  0.70567664  0.35186263  0.41581381     0.06200
C714        C  0.68722365  0.34444304  0.38223685    -0.02400
Br715      Br  0.66490575  0.29759071  0.37183786    -0.02000
H716        H  0.67308736  0.36506029  0.32847020     0.10100
H717        H  0.73228228  0.39435569  0.44809930     0.08100
Br718      Br  0.73801711  0.46210577  0.40538707    -0.02500
C719        C  0.67266542  0.27276349  0.64773202    -0.09100
C720        C  0.66343433  0.28531473  0.61248285     0.07100
C721        C  0.62815250  0.30010034  0.60625314    -0.02900
C722        C  0.60174322  0.29947288  0.63437622    -0.07300
C723        C  0.60991818  0.28451547  0.66922035     0.06200
C724        C  0.64665535  0.27280433  0.67625938    -0.02400
Br725      Br  0.66315879  0.25376573  0.72280179    -0.02000
H726        H  0.69996652  0.26155633  0.65272738     0.10100
H727        H  0.57411144  0.30921520  0.62832452     0.08100
Br728      Br  0.61369187  0.31789912  0.55871418    -0.02500
C729        C  0.77932269  0.08542435  0.61751165    -0.09100
C730        C  0.79766270  0.09171934  0.65089735     0.07100
C731        C  0.81970592  0.12355636  0.65472106    -0.02900
C732        C  0.81999610  0.15014872  0.62650522    -0.07300
C733        C  0.79850441  0.14518483  0.59458589     0.06200
C734        C  0.77963288  0.11156704  0.58955812    -0.02400
Br735      Br  0.75180563  0.10056969  0.54577561    -0.02000
H736        H  0.76294848  0.06068534  0.61385460     0.10100
H737        H  0.83463804  0.17581598  0.63075892     0.08100
Br738      Br  0.84609599  0.13385423  0.69931771    -0.02500
C739        C  0.08789125  0.12244872  0.28754540    -0.09100
C740        C  0.09818303  0.15898575  0.29443492     0.07100
C741        C  0.13467997  0.16689837  0.30531241    -0.02900
C742        C  0.16103202  0.13853711  0.30630206    -0.07300
C743        C  0.15118817  0.10242202  0.29645428     0.06200
C744        C  0.11398904  0.09425288  0.28858443    -0.02400
Br745      Br  0.09798227  0.04520808  0.27693727    -0.02000
H746        H  0.05978747  0.11610352  0.27940475     0.10100
H747        H  0.18966090  0.14518496  0.31199757     0.08100
Br748      Br  0.15038018  0.21637140  0.31499471    -0.02500
C749        C  0.89482358  0.37186420  0.19337552    -0.09100
C750        C  0.88923593  0.33735898  0.21016851     0.07100
C751        C  0.85385111  0.32939056  0.22503850    -0.02900
C752        C  0.82645966  0.35642958  0.22521950    -0.07300
C753        C  0.83292825  0.39140017  0.21053915     0.06200
C754        C  0.86696162  0.39872826  0.19332348    -0.02400
Br755      Br  0.87800395  0.44619020  0.17303535    -0.02000
H756        H  0.92149916  0.37861885  0.18166412     0.10100
H757        H  0.80036528  0.35071565  0.23870691     0.08100
Br758      Br  0.84130068  0.28413997  0.24956938    -0.02500
C759        C  0.11990337  0.31203175  0.14895997    -0.09100
C760        C  0.08617076  0.29407199  0.14264557     0.07100
C761        C  0.07853907  0.27982666  0.10745804    -0.02900
C762        C  0.10538148  0.28129778  0.07994877    -0.07300
C763        C  0.14051859  0.29620177  0.08699621     0.06200
C764        C  0.14712295  0.31319871  0.12145519    -0.02400
Br765      Br  0.19268469  0.33795243  0.13268822    -0.02000
H766        H  0.12589389  0.32331977  0.17591526     0.10100
H767        H  0.09950752  0.26833718  0.05372857     0.08100
Br768      Br  0.03242704  0.25607270  0.09635771    -0.02500
C769        C  0.01909798  0.42138275  0.36075854    -0.09100
C770        C  0.03323930  0.41323609  0.39582729     0.07100
C771        C  0.04817071  0.37788772  0.40203926    -0.02900
C772        C  0.04735692  0.35139570  0.37391518    -0.07300
C773        C  0.03141177  0.35897674  0.33935442     0.06200
C774        C  0.01747722  0.39482508  0.33293938    -0.02400
Br775      Br  0.99172224  0.40903348  0.28886557    -0.02000
H776        H  0.00693684  0.44811194  0.35549151     0.10100
H777        H  0.05843156  0.32428654  0.37954057     0.08100
Br778      Br  0.07018403  0.36395254  0.44804167    -0.02500
C779        C  0.86987356  0.20685436  0.34213475    -0.09100
C780        C  0.90749972  0.20918874  0.35150633     0.07100
C781        C  0.91717724  0.20813009  0.38926414    -0.02900
C782        C  0.88949716  0.20966820  0.41614278    -0.07300
C783        C  0.85185371  0.21151556  0.40657911     0.06200
C784        C  0.84222081  0.20767609  0.36894290    -0.02400
Br785      Br  0.79227917  0.20413260  0.35103703    -0.02000
H786        H  0.86154428  0.20610540  0.31351345     0.10100
H787        H  0.89775249  0.21086596  0.44476610     0.08100
Br788      Br  0.96724853  0.20505923  0.40677704    -0.02500
C789        C  0.87254385  0.89723983  0.06132831    -0.09100
C790        C  0.90715548  0.88984122  0.04551512     0.07100
C791        C  0.91511732  0.85406887  0.03303304    -0.02900
C792        C  0.88792748  0.82690188  0.03436183    -0.07300
C793        C  0.85239344  0.83486946  0.04744565     0.06200
C794        C  0.84497408  0.87001486  0.06203929    -0.02400
Br795      Br  0.79633496  0.88336456  0.07817022    -0.02000
H796        H  0.86602052  0.92487560  0.07045209     0.10100
H797        H  0.89377361  0.80006290  0.02276890     0.08100
Br798      Br  0.96193513  0.84179450  0.01135979    -0.02500
C799        C  0.15404426  0.11723840  0.95275455    -0.09100
C800        C  0.14351509  0.15341913  0.96163173     0.07100
C801        C  0.10577640  0.16048033  0.96922793    -0.02900
C802        C  0.08055788  0.13139101  0.97020967    -0.07300
C803        C  0.09164039  0.09477418  0.96425189     0.06200
C804        C  0.12875984  0.08808487  0.95394280    -0.02400
Br805      Br  0.14766729  0.04019180  0.94167983    -0.02000
H806        H  0.18257164  0.11122704  0.94601296     0.10100
H807        H  0.05226120  0.13750552  0.97775113     0.08100
Br808      Br  0.08627989  0.20808966  0.98209376    -0.02500
C809        C  0.04323592  0.87918757  0.84217762    -0.09100
C810        C  0.04855921  0.84207158  0.85218995     0.07100
C811        C  0.05611520  0.83409739  0.88966829    -0.02900
C812        C  0.05418307  0.86226274  0.91615610    -0.07300
C813        C  0.04541349  0.89844686  0.90602764     0.06200
C814        C  0.04141005  0.90702870  0.86861889    -0.02400
Br815      Br  0.03116433  0.95624615  0.85251859    -0.02000
H816        H  0.03820973  0.88662430  0.81377126     0.10100
H817        H  0.05772738  0.85552882  0.94497567     0.08100
Br818      Br  0.06849355  0.78574608  0.90707550    -0.02500
C819        C  0.09030495  0.95171301  0.13880452    -0.09100
C820        C  0.10021400  0.95592912  0.10149486     0.07100
C821        C  0.13848735  0.95777162  0.09267598    -0.02900
C822        C  0.16492869  0.95818662  0.12082095    -0.07300
C823        C  0.15451182  0.95670345  0.15780792     0.06200
C824        C  0.11702037  0.95239411  0.16675164    -0.02400
Br825      Br  0.10099198  0.95067708  0.21700915    -0.02000
H826        H  0.06148922  0.94992740  0.14663526     0.10100
H827        H  0.19379862  0.96202918  0.11384429     0.08100
Br828      Br  0.15771243  0.96272766  0.04357782    -0.02500
C829        C  0.86320656  0.03699710  0.91916228    -0.09100
C830        C  0.90045609  0.03701423  0.90906271     0.07100
C831        C  0.91009046  0.04199831  0.87201844    -0.02900
C832        C  0.88240623  0.04431802  0.84526066    -0.07300
C833        C  0.84472569  0.04108777  0.85466911     0.06200
C834        C  0.83527861  0.03916862  0.89258880    -0.02400
Br835      Br  0.78550295  0.03671763  0.91096788    -0.02000
H836        H  0.85577338  0.03335938  0.94781107     0.10100
H837        H  0.89069262  0.04641232  0.81671534     0.08100
Br838      Br  0.96073140  0.04282072  0.85644885    -0.02500
C839        C  0.93820039  0.14715070  0.12886201    -0.09100
C840        C  0.95990529  0.14280631  0.16058932     0.07100
C841        C  0.97763432  0.10893651  0.16687119    -0.02900
C842        C  0.97598255  0.08117102  0.14040317    -0.07300
C843        C  0.95722789  0.08649998  0.10698982     0.06200
C844        C  0.93678706  0.11929336  0.10200298    -0.02400
Br845      Br  0.90647334  0.12734892  0.05942393    -0.02000
H846        H  0.92389752  0.17288849  0.12407568     0.10100
H847        H  0.99145905  0.05610073  0.14514366     0.08100
Br848      Br  0.00555679  0.09961838  0.21085666    -0.02500
loop_ 
_geom_bond_atom_site_label_1 
_geom_bond_atom_site_label_2 
_geom_bond_distance 
_geom_bond_site_symmetry_2 
_ccdc_geom_bond_type 
O1           C17   1.273   1_565  A
O1           Zn7   2.012       .  S
C2           O18   1.272   1_455  A
C2           O15   1.275       .  A
C2          C813   1.474       .  S
O3           C16   1.275       .  A
O3          Cd10   2.084       .  S
O4           C22   1.272       .  A
O4          Cd13   2.065   1_554  S
O5           C19   1.276       .  A
O5           Cd9   2.064   1_455  S
O6           C17   1.273       .  A
O6           Cd9   2.076       .  S
Zn7          O18   2.012       .  S
Zn7          O20   2.003   1_556  S
Zn7          O12   1.928   1_556  S
O8           C19   1.274       .  A
O8          Cd13   2.072   1_545  S
Cd9          O11   2.081   1_556  S
Cd9          O12   2.009   1_546  S
Cd10         O14   2.073   1_565  S
Cd10         O23   2.089   1_655  S
Cd10         O12   2.012       .  S
O11          C21   1.275       .  A
O12         Cd13   2.006   1_654  S
Cd13         O15   2.092       .  S
O14          C21   1.276       .  A
C16          O20   1.273       .  A
C16         C790   1.469       .  S
C17         C830   1.467       .  S
C19         C803   1.490       .  S
C21         C843   1.484       .  S
C22          O23   1.278       .  A
C22         C820   1.497       .  S
O24          C40   1.273       .  A
O24         Zn30   1.999       .  S
C25          O41   1.272       .  A
C25          O38   1.275       .  A
C25         C740   1.469       .  S
O26          C39   1.274       .  A
O26         Cd33   2.088       .  S
O27          C45   1.273       .  A
O27         Cd36   2.066   1_655  S
O28          C42   1.276       .  A
O28         Cd32   2.083       .  S
O29          C40   1.277       .  A
O29         Cd32   2.097       .  S
Zn30         O41   1.999       .  S
Zn30         O43   2.000       .  S
Zn30         O35   1.920   1_455  S
O31          C42   1.276       .  A
O31         Cd36   2.074       .  S
Cd32         O34   2.090   1_455  S
Cd32         O35   2.013   1_455  S
Cd33         O37   2.058       .  S
Cd33         O46   2.073       .  S
Cd33         O35   2.007       .  S
O34          C44   1.278       .  A
O35         Cd36   2.011   1_655  S
Cd36         O38   2.087       .  S
O37          C44   1.272       .  A
C39          O43   1.271   1_655  A
C39         C840   1.474       .  S
C40         C760   1.472       .  S
C42         C773   1.492       .  S
C44         C750   1.489       .  S
C45          O46   1.277       .  A
C45         C780   1.492       .  S
O47          C63   1.270       .  A
O47         Zn53   1.982       .  S
C48          O64   1.272       .  A
C48          O61   1.275       .  A
C48         C720   1.472       .  S
O49          C62   1.272       .  A
O49         Cd56   2.075       .  S
O50          C68   1.277       .  A
O50         Cd59   2.084       .  S
O51          C65   1.277       .  A
O51         Cd55   2.087       .  S
O52          C63   1.277       .  A
O52         Cd55   2.110       .  S
Zn53         O64   2.005       .  S
Zn53         O66   2.009       .  S
Zn53         O58   1.920       .  S
O54          C65   1.277       .  A
O54         Cd59   2.075       .  S
Cd55         O57   2.090       .  S
Cd55         O58   2.020       .  S
Cd56         O60   2.059       .  S
Cd56         O69   2.074       .  S
Cd56         O58   2.005       .  S
O57          C67   1.279       .  A
O58         Cd59   2.009       .  S
Cd59         O61   2.088       .  S
O60          C67   1.272       .  A
C62          O66   1.273       .  A
C62         C693   1.466       .  S
C63         C733   1.479       .  S
C65         C700   1.498       .  S
C67         C783   1.493       .  S
C68          O69   1.275       .  A
C68         C713   1.487       .  S
O70          C86   1.272       .  A
O70         Zn76   1.992       .  S
C71          O87   1.269       .  A
C71          O84   1.276       .  A
C71         C670   1.471       .  S
O72          C85   1.274       .  A
O72         Cd79   2.079       .  S
O73          C91   1.276       .  A
O73         Cd82   2.082       .  S
O74          C88   1.277       .  A
O74         Cd78   2.067   1_565  S
O75          C86   1.275       .  A
O75         Cd78   2.099       .  S
Zn76         O87   1.988   1_545  S
Zn76         O89   1.989       .  S
Zn76         O81   1.913   1_545  S
O77          C88   1.276       .  A
O77         Cd82   2.074       .  S
Cd78         O80   2.074       .  S
Cd78         O81   2.011   1_545  S
Cd79         O83   2.066       .  S
Cd79         O92   2.070   1_545  S
Cd79         O81   2.006   1_545  S
O80          C90   1.277       .  A
O81         Cd82   2.014       .  S
Cd82         O84   2.100       .  S
O83          C90   1.273       .  A
C85          O89   1.271       .  A
C85         C663   1.471       .  S
C86         C730   1.479       .  S
C88         C650   1.486       .  S
C90         C833   1.493       .  S
C91          O92   1.275       .  A
C91         C680   1.489       .  S
O93         C109   1.270   1_545  A
O93         Zn99   1.992       .  S
C94         O110   1.271       .  A
C94         O107   1.275       .  A
C94         C743   1.471       .  S
O95         C108   1.275       .  A
O95        Cd102   2.083       .  S
O96         C114   1.274       .  A
O96        Cd105   2.072       .  S
O97         C111   1.278       .  A
O97        Cd101   2.073       .  S
O98         C109   1.276       .  A
O98        Cd101   2.099       .  S
Zn99        O110   1.992       .  S
Zn99        O112   1.982       .  S
Zn99        O104   1.914       .  S
O100        C111   1.274       .  A
O100       Cd105   2.066   1_565  S
Cd101       O103   2.081       .  S
Cd101       O104   2.007   1_565  S
Cd102       O106   2.068   1_545  S
Cd102       O115   2.077       .  S
Cd102       O104   2.008       .  S
O103        C113   1.276       .  A
O104       Cd105   2.007       .  S
Cd105       O107   2.092       .  S
O106        C113   1.275       .  A
C108        O112   1.270       .  A
C108        C623   1.467       .  S
C109        C823   1.471       .  S
C111        C633   1.489       .  S
C113        C640   1.485       .  S
C114        O115   1.277       .  A
C114        C613   1.491       .  S
O116        C132   1.273       .  A
O116       Zn122   1.998       .  S
C117        O133   1.270       .  A
C117        O130   1.275       .  A
C117        C590   1.476       .  S
O118        C131   1.277       .  A
O118       Cd125   2.103       .  S
O119        C137   1.276       .  A
O119       Cd128   2.065   1_655  S
O120        C134   1.277       .  A
O120       Cd124   2.086       .  S
O121        C132   1.276       .  A
O121       Cd124   2.088       .  S
Zn122       O133   1.995       .  S
Zn122       O135   1.989   1_455  S
Zn122       O127   1.917   1_455  S
O123        C134   1.276       .  A
O123       Cd128   2.068       .  S
Cd124       O126   2.077   1_455  S
Cd124       O127   2.010   1_455  S
Cd125       O129   2.086       .  S
Cd125       O138   2.080       .  S
Cd125       O127   2.015       .  S
O126        C136   1.277       .  A
O127       Cd128   2.010   1_655  S
Cd128       O130   2.098       .  S
O129        C136   1.276       .  A
C131        O135   1.271       .  A
C131        C603   1.475       .  S
C132        C570   1.474       .  S
C134        C770   1.488       .  S
C136        C703   1.498       .  S
C137        O138   1.277       .  A
C137        C583   1.485       .  S
O139        C155   1.272       .  A
O139       Zn145   1.993       .  S
C140        O156   1.271       .  A
C140        O153   1.274       .  A
C140        C553   1.477       .  S
O141        C154   1.276       .  A
O141       Cd148   2.099       .  S
O142        C160   1.274       .  A
O142       Cd151   2.050       .  S
O143        C157   1.278       .  A
O143       Cd147   2.081       .  S
O144        C155   1.276       .  A
O144       Cd147   2.094       .  S
Zn145       O156   1.993       .  S
Zn145       O158   1.975       .  S
Zn145       O150   1.901       .  S
O146        C157   1.274       .  A
O146       Cd151   2.067       .  S
Cd147       O149   2.071       .  S
Cd147       O150   2.005       .  S
Cd148       O152   2.081       .  S
Cd148       O161   2.081       .  S
Cd148       O150   2.019       .  S
O149        C159   1.276       .  A
O150       Cd151   2.002       .  S
Cd151       O153   2.093       .  S
O152        C159   1.275       .  A
C154        O158   1.269       .  A
C154        C530   1.479       .  S
C155        C560   1.471       .  S
C157        C540   1.491       .  S
C159        C723   1.491       .  S
C160        O161   1.277       .  A
C160        C660   1.475       .  S
O162        C178   1.271       .  A
O162       Zn168   1.991       .  S
C163        O179   1.272       .  A
C163        O176   1.275       .  A
C163        C683   1.472       .  S
O164        C177   1.275       .  A
O164       Cd171   2.095       .  S
O165        C183   1.273       .  A
O165       Cd174   2.069   1_554  S
O166        C180   1.274       .  A
O166       Cd170   2.077       .  S
O167        C178   1.276       .  A
O167       Cd170   2.096       .  S
Zn168       O179   2.000       .  S
Zn168       O181   1.976   1_556  S
Zn168       O173   1.914       .  S
O169        C180   1.277       .  A
O169       Cd174   2.075       .  S
Cd170       O172   2.069   1_556  S
Cd170       O173   2.007       .  S
Cd171       O175   2.078       .  S
Cd171       O184   2.072       .  S
Cd171       O173   2.014   1_554  S
O172        C182   1.276       .  A
O173       Cd174   2.004       .  S
Cd174       O176   2.088       .  S
O175        C182   1.276       .  A
C177        O181   1.268       .  A
C177        C793   1.469       .  S
C178        C520   1.472       .  S
C180        C490   1.496       .  S
C182        C510   1.485       .  S
C183        O184   1.277       .  A
C183        C500   1.491       .  S
O185        C201   1.271       .  A
O185       Zn191   1.983       .  S
C186        O202   1.270       .  A
C186        O199   1.275       .  A
C186        C473   1.478       .  S
O187        C200   1.274       .  A
O187       Cd194   2.084       .  S
O188        C206   1.277       .  A
O188       Cd197   2.078   1_554  S
O189        C203   1.277       .  A
O189       Cd193   2.073       .  S
O190        C201   1.276       .  A
O190       Cd193   2.102       .  S
Zn191       O202   1.980       .  S
Zn191       O204   1.975       .  S
Zn191       O196   1.894       .  S
O192        C203   1.273       .  A
O192       Cd197   2.060       .  S
Cd193       O195   2.073   1_556  S
Cd193       O196   2.012       .  S
Cd194       O198   2.061       .  S
Cd194       O207   2.068       .  S
Cd194       O196   2.005   1_554  S
O195        C205   1.276       .  A
O196       Cd197   2.007       .  S
Cd197       O199   2.093       .  S
O198        C205   1.276       .  A
C200        O204   1.269   1_554  A
C200        C483   1.473       .  S
C201        C550   1.478       .  S
C203        C800   1.487       .  S
C205        C620   1.478       .  S
C206        O207   1.274       .  A
C206        C763   1.484       .  S
O208        C224   1.271       .  A
O208       Zn214   1.993       .  S
C209        O225   1.271       .  A
C209        O222   1.275       .  A
C209        C753   1.473       .  S
O210        C223   1.275       .  A
O210       Cd217   2.085       .  S
O211        C229   1.273       .  A
O211       Cd220   2.063       .  S
O212        C226   1.278       .  A
O212       Cd216   2.080       .  S
O213        C224   1.277       .  A
O213       Cd216   2.102       .  S
Zn214       O225   1.998       .  S
Zn214       O227   1.992       .  S
Zn214       O219   1.916       .  S
O215        C226   1.275       .  A
O215       Cd220   2.071       .  S
Cd216       O218   2.080       .  S
Cd216       O219   2.011       .  S
Cd217       O221   2.068       .  S
Cd217       O230   2.076       .  S
Cd217       O219   2.012       .  S
O218        C228   1.276       .  A
O219       Cd220   2.003       .  S
Cd220       O222   2.090       .  S
O221        C228   1.275       .  A
C223        O227   1.271       .  A
C223        C580   1.468       .  S
C224        C710   1.475       .  S
C226        C450   1.493       .  S
C228        C463   1.491       .  S
C229        O230   1.276       .  A
C229        C513   1.488       .  S
O231        C247   1.272       .  A
O231       Zn237   2.003       .  S
C232        O248   1.272   1_545  A
C232        O245   1.276       .  A
C232        C610   1.472       .  S
O233        C246   1.274       .  A
O233       Cd240   2.085       .  S
O234        C252   1.277       .  A
O234       Cd243   2.079       .  S
O235        C249   1.277       .  A
O235       Cd239   2.071   1_545  S
O236        C247   1.276       .  A
O236       Cd239   2.094       .  S
Zn237       O248   2.004       .  S
Zn237       O250   1.990       .  S
Zn237       O242   1.919   1_565  S
O238        C249   1.275       .  A
O238       Cd243   2.076       .  S
Cd239       O241   2.087       .  S
Cd239       O242   2.010   1_565  S
Cd240       O244   2.071       .  S
Cd240       O253   2.064   1_565  S
Cd240       O242   2.008   1_565  S
O241        C251   1.278       .  A
O242       Cd243   2.008       .  S
Cd243       O245   2.089       .  S
O244        C251   1.273       .  A
C246        O250   1.272       .  A
C246        C430   1.471       .  S
C247        C440   1.473       .  S
C249        C543   1.495       .  S
C251        C673   1.497       .  S
C252        O253   1.273       .  A
C252        C690   1.491       .  S
O254        C270   1.272   1_455  A
O254       Zn260   1.998       .  S
C255        O271   1.272       .  A
C255        O268   1.272       .  A
C255        C410   1.469       .  S
O256        C269   1.277       .  A
O256       Cd263   2.094       .  S
O257        C275   1.275       .  A
O257       Cd266   2.063       .  S
O258        C272   1.278       .  A
O258       Cd262   2.083       .  S
O259        C270   1.276       .  A
O259       Cd262   2.099       .  S
Zn260       O271   1.998       .  S
Zn260       O273   1.991       .  S
Zn260       O265   1.913       .  S
O261        C272   1.272       .  A
O261       Cd266   2.055   1_655  S
Cd262       O264   2.079       .  S
Cd262       O265   2.014   1_655  S
Cd263       O267   2.075   1_455  S
Cd263       O276   2.091       .  S
Cd263       O265   2.009       .  S
O264        C274   1.276       .  A
O265       Cd266   1.999       .  S
Cd266       O268   2.073       .  S
O267        C274   1.277       .  A
C269        O273   1.272       .  A
C269        C423   1.472       .  S
C270        C600   1.476       .  S
C272        C653   1.484       .  S
C274        C523   1.485       .  S
C275        O276   1.276       .  A
C275        C810   1.496       .  S
O277        C293   1.272       .  A
O277       Zn283   1.994       .  S
C278        O294   1.272       .  A
C278        O291   1.273       .  A
C278        C403   1.470       .  S
O279        C292   1.275       .  A
O279       Cd286   2.088       .  S
O280        C298   1.274       .  A
O280       Cd289   2.055       .  S
O281        C295   1.278       .  A
O281       Cd285   2.088       .  S
O282        C293   1.277       .  A
O282       Cd285   2.095       .  S
Zn283       O294   2.009       .  S
Zn283       O296   1.991       .  S
Zn283       O288   1.914       .  S
O284        C295   1.272       .  A
O284       Cd289   2.064       .  S
Cd285       O287   2.077       .  S
Cd285       O288   2.009       .  S
Cd286       O290   2.070       .  S
Cd286       O299   2.077       .  S
Cd286       O288   2.011       .  S
O287        C297   1.277       .  A
O288       Cd289   1.995       .  S
Cd289       O291   2.080       .  S
O290        C297   1.275       .  A
C292        O296   1.272       .  A
C292        C433   1.470       .  S
C293        C643   1.472       .  S
C295        C390   1.496       .  S
C297        C503   1.491       .  S
C298        O299   1.275       .  A
C298        C460   1.486       .  S
O300        C316   1.271       .  A
O300       Zn306   1.985       .  S
C301        O317   1.272       .  A
C301        O314   1.275       .  A
C301        C593   1.475       .  S
O302        C315   1.278       .  A
O302       Cd309   2.105       .  S
O303        C321   1.275       .  A
O303       Cd312   2.057       .  S
O304        C318   1.276       .  A
O304       Cd308   2.073       .  S
O305        C316   1.275       .  A
O305       Cd308   2.088       .  S
Zn306       O317   2.009       .  S
Zn306       O319   2.002       .  S
Zn306       O311   1.917       .  S
O307        C318   1.274       .  A
O307       Cd312   2.067       .  S
Cd308       O310   2.079       .  S
Cd308       O311   2.016       .  S
Cd309       O313   2.083       .  S
Cd309       O322   2.092       .  S
Cd309       O311   2.011       .  S
O310        C320   1.275       .  A
O311       Cd312   2.001       .  S
Cd312       O314   2.090       .  S
O313        C320   1.278       .  A
C315        O319   1.272       .  A
C315        C380   1.477       .  S
C316        C413   1.469       .  S
C318        C630   1.490       .  S
C320        C443   1.496       .  S
C321        O322   1.278       .  A
C321        C400   1.491       .  S
O323        C339   1.271       .  A
O323       Zn329   1.995       .  S
C324        O340   1.274       .  A
C324        O337   1.276       .  A
C324        C370   1.477       .  S
O325        C338   1.274       .  A
O325       Cd332   2.092       .  S
O326        C344   1.276       .  A
O326       Cd335   2.076       .  S
O327        C341   1.276       .  A
O327       Cd331   2.074       .  S
O328        C339   1.276       .  A
O328       Cd331   2.095       .  S
Zn329       O340   2.004       .  S
Zn329       O342   1.994       .  S
Zn329       O334   1.915       .  S
O330        C341   1.277       .  A
O330       Cd335   2.089       .  S
Cd331       O333   2.073       .  S
Cd331       O334   2.012       .  S
Cd332       O336   2.071       .  S
Cd332       O345   2.068       .  S
Cd332       O334   2.014       .  S
O333        C343   1.276       .  A
O334       Cd335   2.013       .  S
Cd335       O337   2.097       .  S
O336        C343   1.275       .  A
C338        O342   1.272       .  A
C338        C470   1.477       .  S
C339        C563   1.471       .  S
C341        C383   1.490       .  S
C343        C573   1.478       .  S
C344        O345   1.276       .  A
C344        C420   1.485       .  S
O346        C362   1.270       .  A
O346       Zn352   1.972       .  S
C347        O363   1.270   1_554  A
C347        O360   1.275       .  A
C347        C480   1.475       .  S
O348        C361   1.277       .  A
O348       Cd355   2.111       .  S
O349        C367   1.277       .  A
O349       Cd358   2.071       .  S
O350        C364   1.278       .  A
O350       Cd354   2.078   1_554  S
O351        C362   1.275       .  A
O351       Cd354   2.100       .  S
Zn352       O363   1.976       .  S
Zn352       O365   1.979       .  S
Zn352       O357   1.901   1_556  S
O353        C364   1.274       .  A
O353       Cd358   2.075       .  S
Cd354       O356   2.077       .  S
Cd354       O357   2.015   1_556  S
Cd355       O359   2.075       .  S
Cd355       O368   2.080   1_556  S
Cd355       O357   2.013   1_556  S
O356        C366   1.278       .  A
O357       Cd358   2.009       .  S
Cd358       O360   2.092       .  S
O359        C366   1.275       .  A
C361        O365   1.268       .  A
C361        C373   1.478       .  S
C362        C533   1.477       .  S
C364        C453   1.494       .  S
C366        C493   1.496       .  S
C367        O368   1.275       .  A
C367        C393   1.495       .  S
C369        C370   1.406       .  A
C369        C374   1.409       .  A
C369        H376   1.083       .  S
C370        C371   1.408       .  A
C371        C372   1.394       .  A
C371       Br378   1.922       .  S
C372        C373   1.403       .  A
C372        H377   1.084       .  S
C373        C374   1.411       .  A
C374       Br375   1.917       .  S
C379        C380   1.403       .  A
C379        C384   1.406       .  A
C379        H386   1.084       .  S
C380        C381   1.406       .  A
C381        C382   1.398       .  A
C381       Br388   1.921       .  S
C382        C383   1.407       .  A
C382        H387   1.083       .  S
C383        C384   1.416       .  A
C384       Br385   1.920       .  S
C389        C390   1.409       .  A
C389        C394   1.403       .  A
C389        H396   1.083       .  S
C390        C391   1.419       .  A
C391        C392   1.397       .  A
C391       Br398   1.926       .  S
C392        C393   1.406       .  A
C392        H397   1.083       .  S
C393        C394   1.417       .  A
C394       Br395   1.922       .  S
C399        C400   1.410       .  A
C399        C404   1.396       .  A
C399        H406   1.083       .  S
C400        C401   1.417       .  A
C401        C402   1.404       .  A
C401       Br408   1.920       .  S
C402        C403   1.402       .  A
C402        H407   1.083       .  S
C403        C404   1.403       .  A
C404       Br405   1.920       .  S
C409        C410   1.401       .  A
C409        C414   1.393       .  A
C409        H416   1.084       .  S
C410        C411   1.410       .  A
C411        C412   1.403       .  A
C411       Br418   1.918       .  S
C412        C413   1.404       .  A
C412        H417   1.083       .  S
C413        C414   1.408       .  A
C414       Br415   1.922       .  S
C419        C420   1.406       .  A
C419        C424   1.395       .  A
C419        H426   1.083       .  S
C420        C421   1.416       .  A
C421        C422   1.404       .  A
C421       Br428   1.921       .  S
C422        C423   1.402       .  A
C422        H427   1.084       .  S
C423        C424   1.407       .  A
C424       Br425   1.921       .  S
C429        C430   1.401       .  A
C429        C434   1.391       .  A
C429        H436   1.084       .  S
C430        C431   1.410       .  A
C431        C432   1.405       .  A
C431       Br438   1.917       .  S
C432        C433   1.405       .  A
C432        H437   1.083       .  S
C433        C434   1.407       .  A
C434       Br435   1.921       .  S
C439        C440   1.401       .  A
C439        C444   1.406       .  A
C439        H446   1.084       .  S
C440        C441   1.403       .  A
C441        C442   1.397       .  A
C441       Br448   1.920       .  S
C442        C443   1.409       .  A
C442        H447   1.083       .  S
C443        C444   1.422       .  A
C444       Br445   1.922       .  S
C449        C450   1.407       .  A
C449        C454   1.400       .  A
C449        H456   1.083       .  S
C450        C451   1.416       .  A
C451        C452   1.400       .  A
C451       Br458   1.923       .  S
C452        C453   1.407       .  A
C452        H457   1.083       .  S
C453        C454   1.418       .  A
C454       Br455   1.924       .  S
C459        C460   1.405       .  A
C459        C464   1.395       .  A
C459        H466   1.084       .  S
C460        C461   1.413       .  A
C461        C462   1.403       .  A
C461       Br468   1.922       .  S
C462        C463   1.410       .  A
C462        H467   1.083       .  S
C463        C464   1.416       .  A
C464       Br465   1.924       .  S
C469        C470   1.401       .  A
C469        C474   1.390       .  A
C469        H476   1.084       .  S
C470        C471   1.411       .  A
C471        C472   1.408       .  A
C471       Br478   1.917       .  S
C472        C473   1.407       .  A
C472        H477   1.083       .  S
C473        C474   1.411       .  A
C474       Br475   1.924       .  S
C479        C480   1.402       .  A
C479        C484   1.389       .  A
C479        H486   1.084   1_554  S
C480        C481   1.411       .  A
C481        C482   1.406       .  A
C481       Br488   1.917       .  S
C482        C483   1.406       .  A
C482        H487   1.083       .  S
C483        C484   1.410       .  A
C484       Br485   1.925   1_554  S
C489        C490   1.407       .  A
C489        C494   1.399       .  A
C489        H496   1.083       .  S
C490        C491   1.418       .  A
C491        C492   1.401       .  A
C491       Br498   1.924       .  S
C492        C493   1.408       .  A
C492        H497   1.083       .  S
C493        C494   1.417       .  A
C494       Br495   1.924       .  S
C499        C500   1.407       .  A
C499        C504   1.399       .  A
C499        H506   1.084       .  S
C500        C501   1.418       .  A
C501        C502   1.399       .  A
C501       Br508   1.924       .  S
C502        C503   1.407       .  A
C502        H507   1.083       .  S
C503        C504   1.415       .  A
C504       Br505   1.922       .  S
C509        C510   1.404       .  A
C509        C514   1.396       .  A
C509        H516   1.084       .  S
C510        C511   1.412       .  A
C511        C512   1.402       .  A
C511       Br518   1.920       .  S
C512        C513   1.408       .  A
C512        H517   1.083       .  S
C513        C514   1.416       .  A
C514       Br515   1.925       .  S
C519        C520   1.402       .  A
C519        C524   1.405       .  A
C519        H526   1.083       .  S
C520        C521   1.407       .  A
C521        C522   1.394       .  A
C521       Br528   1.921       .  S
C522        C523   1.405       .  A
C522        H527   1.084       .  S
C523        C524   1.416       .  A
C524       Br525   1.919       .  S
C529        C530   1.408       .  A
C529        C534   1.409       .  A
C529        H536   1.083       .  S
C530        C531   1.412       .  A
C531        C532   1.388       .  A
C531       Br538   1.927       .  S
C532        C533   1.401       .  A
C532        H537   1.085       .  S
C533        C534   1.410       .  A
C534       Br535   1.916       .  S
C539        C540   1.406       .  A
C539        C544   1.402       .  A
C539        H546   1.083       .  S
C540        C541   1.417       .  A
C541        C542   1.398       .  A
C541       Br548   1.925       .  S
C542        C543   1.407       .  A
C542        H547   1.083       .  S
C543        C544   1.418       .  A
C544       Br545   1.923       .  S
C549        C550   1.402       .  A
C549        C554   1.392       .  A
C549        H556   1.084       .  S
C550        C551   1.412       .  A
C551        C552   1.408       .  A
C551       Br558   1.917       .  S
C552        C553   1.406       .  A
C552        H557   1.083       .  S
C553        C554   1.409       .  A
C554       Br555   1.923       .  S
C559        C560   1.401       .  A
C559        C564   1.395       .  A
C559        H566   1.084       .  S
C560        C561   1.410       .  A
C561        C562   1.405       .  A
C561       Br568   1.918       .  S
C562        C563   1.404       .  A
C562        H567   1.083       .  S
C563        C564   1.408       .  A
C564       Br565   1.919       .  S
C569        C570   1.404       .  A
C569        C574   1.404       .  A
C569        H576   1.083       .  S
C570        C571   1.410       .  A
C571        C572   1.395       .  A
C571       Br578   1.923       .  S
C572        C573   1.403       .  A
C572        H577   1.084       .  S
C573        C574   1.412       .  A
C574       Br575   1.919       .  S
C579        C580   1.401       .  A
C579        C584   1.402       .  A
C579        H586   1.083       .  S
C580        C581   1.405       .  A
C581        C582   1.396       .  A
C581       Br588   1.922       .  S
C582        C583   1.408       .  A
C582        H587   1.083       .  S
C583        C584   1.415       .  A
C584       Br585   1.920       .  S
C589        C590   1.404       .  A
C589        C594   1.405       .  A
C589        H596   1.083       .  S
C590        C591   1.409       .  A
C591        C592   1.397       .  A
C591       Br598   1.920       .  S
C592        C593   1.401       .  A
C592        H597   1.084       .  S
C593        C594   1.410       .  A
C594       Br595   1.917       .  S
C599        C600   1.406       .  A
C599        C604   1.407       .  A
C599        H606   1.083       .  S
C600        C601   1.409       .  A
C601        C602   1.394       .  A
C601       Br608   1.922       .  S
C602        C603   1.402       .  A
C602        H607   1.083       .  S
C603        C604   1.409       .  A
C604       Br605   1.917       .  S
C609        C610   1.400       .  A
C609        C614   1.403       .  A
C609        H616   1.084       .  S
C610        C611   1.405       .  A
C611        C612   1.397       .  A
C611       Br618   1.920       .  S
C612        C613   1.409       .  A
C612        H617   1.083       .  S
C613        C614   1.419       .  A
C614       Br615   1.921       .  S
C619        C620   1.404       .  A
C619        C624   1.392       .  A
C619        H626   1.084       .  S
C620        C621   1.414       .  A
C621        C622   1.403       .  A
C621       Br628   1.920       .  S
C622        C623   1.402       .  A
C622        H627   1.083       .  S
C623        C624   1.407       .  A
C624       Br625   1.923       .  S
C629        C630   1.406       .  A
C629        C634   1.399       .  A
C629        H636   1.083       .  S
C630        C631   1.415       .  A
C631        C632   1.398       .  A
C631       Br638   1.922       .  S
C632        C633   1.406       .  A
C632        H637   1.083       .  S
C633        C634   1.418       .  A
C634       Br635   1.925       .  S
C639        C640   1.407       .  A
C639        C644   1.397       .  A
C639        H646   1.084       .  S
C640        C641   1.414       .  A
C641        C642   1.403       .  A
C641       Br648   1.919       .  S
C642        C643   1.402       .  A
C642        H647   1.084       .  S
C643        C644   1.407       .  A
C644       Br645   1.921       .  S
C649        C650   1.405       .  A
C649        C654   1.396       .  A
C649        H656   1.084       .  S
C650        C651   1.414       .  A
C651        C652   1.401       .  A
C651       Br658   1.921       .  S
C652        C653   1.405       .  A
C652        H657   1.084       .  S
C653        C654   1.416       .  A
C654       Br655   1.925       .  S
C659        C660   1.403       .  A
C659        C664   1.390       .  A
C659        H666   1.084       .  S
C660        C661   1.410       .  A
C661        C662   1.404       .  A
C661       Br668   1.917       .  S
C662        C663   1.405       .  A
C662        H667   1.083       .  S
C663        C664   1.409       .  A
C664       Br665   1.923       .  S
C669        C670   1.399       .  A
C669        C674   1.401       .  A
C669        H676   1.084       .  S
C670        C671   1.403       .  A
C671        C672   1.401       .  A
C671       Br678   1.918       .  S
C672        C673   1.411       .  A
C672        H677   1.083       .  S
C673        C674   1.423       .  A
C674       Br675   1.924       .  S
C679        C680   1.408       .  A
C679        C684   1.397       .  A
C679        H686   1.083       .  S
C680        C681   1.417       .  A
C681        C682   1.403       .  A
C681       Br688   1.919       .  S
C682        C683   1.400       .  A
C682        H687   1.083       .  S
C683        C684   1.407       .  A
C684       Br685   1.922       .  S
C689        C690   1.410       .  A
C689        C694   1.397       .  A
C689        H696   1.083       .  S
C690        C691   1.421       .  A
C691        C692   1.401       .  A
C691       Br698   1.924       .  S
C692        C693   1.399       .  A
C692        H697   1.084       .  S
C693        C694   1.401       .  A
C694       Br695   1.919       .  S
C699        C700   1.410       .  A
C699        C704   1.402       .  A
C699        H706   1.083       .  S
C700        C701   1.416       .  A
C701        C702   1.401       .  A
C701       Br708   1.923       .  S
C702        C703   1.408       .  A
C702        H707   1.083       .  S
C703        C704   1.417       .  A
C704       Br705   1.923       .  S
C709        C710   1.402       .  A
C709        C714   1.405       .  A
C709        H716   1.084       .  S
C710        C711   1.407       .  A
C711        C712   1.397       .  A
C711       Br718   1.921       .  S
C712        C713   1.405       .  A
C712        H717   1.084       .  S
C713        C714   1.416       .  A
C714       Br715   1.920       .  S
C719        C720   1.401       .  A
C719        C724   1.401       .  A
C719        H726   1.084       .  S
C720        C721   1.404       .  A
C721        C722   1.400       .  A
C721       Br728   1.918       .  S
C722        C723   1.410       .  A
C722        H727   1.083       .  S
C723        C724   1.419       .  A
C724       Br725   1.923       .  S
C729        C730   1.401       .  A
C729        C734   1.392       .  A
C729        H736   1.084       .  S
C730        C731   1.411       .  A
C731        C732   1.410       .  A
C731       Br738   1.917       .  S
C732        C733   1.408       .  A
C732        H737   1.083       .  S
C733        C734   1.410       .  A
C734       Br735   1.924       .  S
C739        C740   1.401       .  A
C739        C744   1.394       .  A
C739        H746   1.083       .  S
C740        C741   1.407       .  A
C741        C742   1.405       .  A
C741       Br748   1.917       .  S
C742        C743   1.405       .  A
C742        H747   1.083       .  S
C743        C744   1.407       .  A
C744       Br745   1.920       .  S
C749        C750   1.409       .  A
C749        C754   1.404       .  A
C749        H756   1.083       .  S
C750        C751   1.420       .  A
C751        C752   1.396       .  A
C751       Br758   1.925       .  S
C752        C753   1.398       .  A
C752        H757   1.084       .  S
C753        C754   1.407       .  A
C754       Br755   1.918       .  S
C759        C760   1.402       .  A
C759        C764   1.405       .  A
C759        H766   1.083       .  S
C760        C761   1.406       .  A
C761        C762   1.396       .  A
C761       Br768   1.920       .  S
C762        C763   1.405       .  A
C762        H767   1.083       .  S
C763        C764   1.416       .  A
C764       Br765   1.921       .  S
C769        C770   1.405       .  A
C769        C774   1.398       .  A
C769        H776   1.084       .  S
C770        C771   1.412       .  A
C771        C772   1.404       .  A
C771       Br778   1.920       .  S
C772        C773   1.409       .  A
C772        H777   1.083       .  S
C773        C774   1.417       .  A
C774       Br775   1.924   1_455  S
C779        C780   1.406       .  A
C779        C784   1.398       .  A
C779        H786   1.083       .  S
C780        C781   1.417       .  A
C781        C782   1.401       .  A
C781       Br788   1.923       .  S
C782        C783   1.407       .  A
C782        H787   1.083       .  S
C783        C784   1.418       .  A
C784       Br785   1.924       .  S
C789        C790   1.404       .  A
C789        C794   1.404       .  A
C789        H796   1.083       .  S
C790        C791   1.406       .  A
C791        C792   1.394       .  A
C791       Br798   1.921       .  S
C792        C793   1.402       .  A
C792        H797   1.083       .  S
C793        C794   1.408       .  A
C794       Br795   1.918       .  S
C799        C800   1.406       .  A
C799        C804   1.400       .  A
C799        H806   1.083       .  S
C800        C801   1.417       .  A
C801        C802   1.396       .  A
C801       Br808   1.926       .  S
C802        C803   1.406       .  A
C802        H807   1.083       .  S
C803        C804   1.416       .  A
C804       Br805   1.922       .  S
C809        C810   1.410       .  A
C809        C814   1.396       .  A
C809        H816   1.083       .  S
C810        C811   1.419       .  A
C811        C812   1.406       .  A
C811       Br818   1.921       .  S
C812        C813   1.402       .  A
C812        H817   1.084       .  S
C813        C814   1.403       .  A
C814       Br815   1.919       .  S
C819        C820   1.412       .  A
C819        C824   1.402       .  A
C819        H826   1.083       .  S
C820        C821   1.423       .  A
C821        C822   1.400       .  A
C821       Br828   1.925       .  S
C822        C823   1.398       .  A
C822        H827   1.084       .  S
C823        C824   1.404       .  A
C824       Br825   1.918       .  S
C829        C830   1.397       .  A
C829        C834   1.400       .  A
C829        H836   1.084       .  S
C830        C831   1.403       .  A
C831        C832   1.398       .  A
C831       Br838   1.918       .  S
C832        C833   1.411       .  A
C832        H837   1.083       .  S
C833        C834   1.422       .  A
C834       Br835   1.923       .  S
C839        C840   1.404       .  A
C839        C844   1.406       .  A
C839        H846   1.083       .  S
C840        C841   1.407       .  A
C841        C842   1.394       .  A
C841       Br848   1.921   1_655  S
C842        C843   1.404       .  A
C842        H847   1.084       .  S
C843        C844   1.415       .  A
C844       Br845   1.919       .  S
