geometry optimzed in LAMMPS
_audit_creation_date              2020-11-30 
_audit_creation_method            'lammps2cif' 
_symmetry_space_group_name_H-M    'P1' 
_symmetry_Int_Tables_number       1 
_symmetry_cell_setting            triclinic 
loop_ 
_symmetry_equiv_pos_as_xyz 
  x,y,z 
_cell_length_a                    37.43246416 
_cell_length_b                    36.994611456975214 
_cell_length_c                    51.201261251140565 
_cell_angle_alpha                 93.30323125322361 
_cell_angle_beta                  91.00753460306346 
_cell_angle_gamma                 119.88210958369454 
loop_ 
_atom_site_label 
_atom_site_type_symbol 
_atom_site_fract_x 
_atom_site_fract_y 
_atom_site_fract_z 
_atom_site_charge 
C1          C  0.46217111  0.39834109  0.38098751     0.79600
N2          N  0.48737473  0.38643190  0.36926599    -0.78700
C3          C  0.47593340  0.36389793  0.34567903     0.82000
N4          N  0.43915039  0.35374321  0.33354102    -0.78700
C5          C  0.41371971  0.36562282  0.34501650     0.82100
N6          N  0.42517581  0.38751231  0.36888489    -0.80400
C7          C  0.35156740  0.47187163  0.24051627     0.79600
N8          N  0.34715579  0.43887903  0.25348320    -0.78700
C9          C  0.33288726  0.43345450  0.27806743     0.82000
N10         N  0.32333511  0.46127735  0.28964585    -0.78700
C11         C  0.32780666  0.49431264  0.27690527     0.82100
N12         N  0.34154445  0.49926884  0.25228821    -0.80400
C13         C  0.24873245  0.18131541  0.38260240     0.79600
N14         N  0.25464740  0.15165439  0.36980177    -0.78700
C15         C  0.26609960  0.15538710  0.34466562     0.82000
N16         N  0.27258376  0.18967671  0.33245755    -0.78700
C17         C  0.26692200  0.21965458  0.34514874     0.82100
N18         N  0.25485992  0.21526601  0.37018606    -0.80400
O19         O  0.32674216  0.36638052  0.27866202    -0.75100
O20         O  0.29017950  0.26254139  0.30947287    -0.75100
O21         O  0.25352646  0.29478536  0.27958071    -0.75200
O22         O  0.36309964  0.33428327  0.30931219    -0.75200
O23         O  0.34772980  0.36023006  0.34499633    -0.75100
O24         O  0.23821148  0.31970844  0.31575482    -0.75100
O25         O  0.27527818  0.28788850  0.34565133    -0.75100
O26         O  0.31072981  0.39157946  0.31441696    -0.75200
Ni27       Ni  0.30895139  0.31363121  0.29296317     1.25400
Ni28       Ni  0.29250700  0.34079728  0.33148259     1.25400
C29         C  0.32365980  0.39560468  0.29113873     0.87100
C30         C  0.27747453  0.25835579  0.33274065     0.87000
C31         C  0.22798560  0.30110683  0.29273700     0.87100
C32         C  0.37306687  0.35306444  0.33237081     0.87200
C33         C  0.13835286  0.25648467  0.24490119     0.79600
N34         N  0.11134150  0.26400426  0.25812618    -0.78700
C35         C  0.12156778  0.28335754  0.28264060     0.82000
N36         N  0.15933033  0.29515564  0.29407463    -0.78700
C37         C  0.18654767  0.28744026  0.28098896     0.82100
N38         N  0.17595888  0.26842661  0.25637881    -0.80400
C39         C  0.13444192  0.46465808  0.24284339     0.79600
N40         N  0.10877948  0.43137714  0.25615504    -0.78700
C41         C  0.11911547  0.42809690  0.28114345     0.82000
N42         N  0.15548383  0.45856002  0.29289198    -0.78700
C43         C  0.18121632  0.99224269  0.27977152     0.82100
N44         N  0.17069607  0.99488422  0.25476147    -0.80400
C45         C  0.45135742  0.16861989  0.38095263     0.79600
N46         N  0.47994106  0.20436253  0.37061661    -0.78700
C47         C  0.47296746  0.21253357  0.34590812     0.82000
N48         N  0.43715912  0.18524294  0.33191636    -0.78700
C49         C  0.40886609  0.14981119  0.34226486     0.82100
N50         N  0.41637396  0.14199314  0.36652735    -0.80400
O51         O  0.03376733  0.28072886  0.34802007    -0.75100
O52         O  0.10181841  0.38553441  0.31761199    -0.75100
O53         O  0.03435746  0.35449789  0.34730500    -0.75200
O54         O  0.10207682  0.31270332  0.31857805    -0.75200
O55         O  0.06086071  0.28868226  0.28222718    -0.75100
O56         O  0.99293031  0.33008987  0.31105119    -0.75100
O57         O  0.06004929  0.36098509  0.28150719    -0.75100
O58         O  0.99320804  0.25733612  0.31139526    -0.75200
Ni59       Ni  0.06943672  0.33417846  0.33424404     1.25400
Ni60       Ni  0.02532771  0.30838250  0.29530747     1.25400
C61         C  0.00178366  0.25200825  0.33465209     0.87100
C62         C  0.09229002  0.38999735  0.29427201     0.87000
C63         C  0.00244544  0.34899788  0.33403072     0.87100
C64         C  0.09325992  0.29495699  0.29530271     0.87200
O65         O  0.27139667  0.09380730  0.34425250    -0.75100
O66         O  0.30336027  0.01839337  0.31255383    -0.75100
O67         O  0.34215749  0.09169631  0.34224743    -0.75200
O68         O  0.23212658  0.01941803  0.31469435    -0.75200
O69         O  0.24713550  0.05366458  0.27836526    -0.75100
O70         O  0.35815667  0.12760587  0.30660063    -0.75100
O71         O  0.31922968  0.05370519  0.27664862    -0.75100
O72         O  0.28636964  0.12841993  0.30808480    -0.75200
Ni73       Ni  0.28669425  0.05466374  0.32970929     1.25400
Ni74       Ni  0.30315524  0.09208953  0.29109445     1.25400
C75         C  0.27460196  0.12414111  0.33160281     0.87100
C76         C  0.31639458  0.02361899  0.28933018     0.87000
C77         C  0.36806457  0.12164651  0.32939019     0.87100
C78         C  0.22188769  0.02364913  0.29162052     0.87200
O79         O  0.16059403  0.13807315  0.03688280    -0.81500
O80         O  0.01231611  0.03449768  0.11042115    -0.66200
O81         O  0.08757626  0.07532788  0.05624178    -1.12800
C82         C  0.00760755  0.12558844  0.52213740     1.05400
O83         O  0.45520976  0.02669822  0.09017072    -0.79400
O84         O  0.47540783  0.01800163  0.03872088    -0.67000
Ni85       Ni  0.14529868  0.10495326  0.06682563     1.34900
C86         C  0.99867434  0.02642737  0.01942184     0.84100
O87         O  0.07363129  0.02327734  0.09643501    -0.80000
O88         O  0.13904728  0.07391500  0.09709949    -0.90200
C89         C  0.47409215  0.02238546  0.10971242     0.83700
O90         O  0.13981279  0.14622850  0.08773830    -0.68400
O91         O  0.47824472  0.09135385  0.02932188    -0.87700
C92         C  0.11593835  0.13792512  0.10666873     0.84500
C93         C  0.11082370  0.03989944  0.10512816     1.06100
H94         H  0.03369176  0.11066149  0.08331114     0.37900
O95         O  0.02833022  0.08779743  0.07078226    -1.10400
O96         O  0.03103966  0.06222595  0.01815193    -0.67000
Ni97       Ni  0.06565004  0.10852286  0.04375150     1.26300
O98         O  0.08453494  0.10177924  0.10854471    -0.67300
O99         O  0.04366121  0.14159990  0.03242138    -0.79600
C100        C  0.14154130  0.14265059  0.01768316     0.83900
O101        O  0.10327569  0.12974270  0.01697276    -0.66700
Ni102      Ni  0.47087007  0.05969915  0.05989232     1.27400
Ni103      Ni  0.05036779  0.05492283  0.08367355     1.26100
H104        H  0.08213992  0.05248828  0.04363378     0.38400
C105        C  0.00106923  0.14454754  0.49914356    -0.05900
C106        C  0.03381118  0.18127021  0.49026195    -0.05800
C107        C  0.03039951  0.19477541  0.46585220    -0.24000
C108        C  0.49431777  0.17162936  0.44975669     0.18200
C109        C  0.46072226  0.13572139  0.45907671     0.15500
C110        C  0.46406936  0.12279870  0.48373633    -0.19000
C111        C  0.42477025  0.11213607  0.44316743    -0.20800
C112        C  0.42230053  0.12327977  0.41802091    -0.13400
C113        C  0.45561570  0.15854765  0.40810264     0.03300
C114        C  0.49154284  0.18300893  0.42431271    -0.25500
H115        H  0.06277163  0.19871570  0.50171794     0.08400
H116        H  0.05647389  0.22248739  0.45921430     0.12000
H117        H  0.43862325  0.09437782  0.49020880     0.11900
H118        H  0.39872417  0.08456766  0.44999190     0.11600
H119        H  0.39392806  0.10379824  0.40631055     0.12200
H120        H  0.51739936  0.21025837  0.41706011     0.14100
C121        C  0.12169707  0.02205974  0.12702024    -0.05900
C122        C  0.16338459  0.03905214  0.13535868    -0.05800
C123        C  0.17417209  0.02867586  0.15880799    -0.24000
C124        C  0.14348287  0.00124734  0.17447695     0.18200
C125        C  0.10155907  0.98193093  0.16563200     0.15500
C126        C  0.09090259  0.99218438  0.14181689    -0.19000
C127        C  0.07099499  0.45423885  0.18137903    -0.20800
C128        C  0.08176982  0.44733504  0.20614955    -0.13400
C129        C  0.12323154  0.96823908  0.21563919     0.03300
C130        C  0.15401750  0.99424784  0.19932168    -0.25500
H131        H  0.18779023  0.06182451  0.12427284     0.08400
H132        H  0.20647742  0.04338463  0.16516954     0.12000
H133        H  0.05865888  0.97879227  0.13564732     0.11900
H134        H  0.03870523  0.43890298  0.17488099     0.11600
H135        H  0.05749578  0.42686364  0.21827031     0.12200
H136        H  0.18617851  0.00995880  0.20621284     0.14100
C137        C  0.12590285  0.16982496  0.12851155    -0.05900
C138        C  0.16680226  0.20174710  0.13449555    -0.05800
C139        C  0.17719996  0.22689860  0.15796713    -0.24000
C140        C  0.14679555  0.22054565  0.17569306     0.18200
C141        C  0.10515955  0.19037646  0.16896471     0.15500
C142        C  0.09499788  0.16536588  0.14542027    -0.19000
C143        C  0.07458278  0.18444060  0.18640540    -0.20800
C144        C  0.08535955  0.20696076  0.21081956    -0.13400
C145        C  0.12688850  0.23542292  0.21826716     0.03300
C146        C  0.15743185  0.24274292  0.20037787    -0.25500
H147        H  0.19109249  0.20578508  0.12173335     0.08400
H148        H  0.20920150  0.25024617  0.16268096     0.12000
H149        H  0.06322426  0.14117681  0.14079462     0.11900
H150        H  0.04248215  0.16164718  0.18143725     0.11600
H151        H  0.06132063  0.20102532  0.22425116     0.12200
H152        H  0.18948188  0.26520899  0.20581390     0.14100
C153        C  0.23711087  0.17711661  0.41009283    -0.05900
C154        C  0.25020569  0.15633149  0.42648103    -0.05800
C155        C  0.23768195  0.14992885  0.45208929    -0.24000
C156        C  0.21083931  0.16312567  0.46150574     0.18200
C157        C  0.19792128  0.18471518  0.44535795     0.15500
C158        C  0.21193399  0.19243587  0.41989596    -0.19000
C159        C  0.16957647  0.19619859  0.45450270    -0.20800
C160        C  0.15232836  0.18407741  0.47869760    -0.13400
C161        C  0.16432930  0.16167152  0.99447721     0.03300
C162        C  0.19484753  0.15283648  0.48622377    -0.25500
H163        H  0.27005108  0.14478762  0.41940523     0.08400
H164        H  0.24783006  0.13333600  0.46421151     0.12000
H165        H  0.20155622  0.20833705  0.40729731     0.11900
H166        H  0.15931517  0.21277245  0.44245005     0.11600
H167        H  0.12882650  0.19122893  0.48480577     0.12200
H168        H  0.20380156  0.13506195  0.99815897     0.14100
C169        C  0.45110789  0.00392151  0.13320762    -0.05900
C170        C  0.46600483  0.98623088  0.15097164    -0.05800
C171        C  0.44747040  0.97339220  0.17474406    -0.24000
C172        C  0.41428922  0.47894332  0.18152208     0.18200
C173        C  0.39866483  0.49610783  0.16363537     0.15500
C174        C  0.41659444  0.00766070  0.13941142    -0.19000
C175        C  0.36653110  0.50315177  0.17074617    -0.20800
C176        C  0.35100917  0.49469336  0.19564598    -0.13400
C177        C  0.36649042  0.47796207  0.21366670     0.03300
C178        C  0.39752435  0.46918244  0.20624500    -0.25500
H179        H  0.49254161  0.98298996  0.14666661     0.08400
H180        H  0.45996351  0.96039209  0.18818209     0.12000
H181        H  0.40516586  0.52176456  0.12606419     0.11900
H182        H  0.35419175  0.51631984  0.15732883     0.11600
H183        H  0.32689013  0.50140737  0.20089743     0.12200
H184        H  0.40990824  0.45664915  0.22012532     0.14100
C185        C  0.98649054  0.49516899  0.49660654    -0.05900
C186        C  0.44570756  0.96171414  0.49276910    -0.05800
C187        C  0.43275907  0.43559363  0.46955186    -0.24000
C188        C  0.46044662  0.44213898  0.44980681     0.18200
C189        C  0.50198291  0.47445129  0.45397580     0.15500
C190        C  0.01464923  0.50079076  0.47720504    -0.19000
C191        C  0.53004492  0.48040225  0.43461618    -0.20800
C192        C  0.51702367  0.45499056  0.41118979    -0.13400
C193        C  0.47554944  0.42374082  0.40639760     0.03300
C194        C  0.44732028  0.41733787  0.42586873    -0.25500
H195        H  0.42332375  0.95665726  0.50730362     0.08400
H196        H  0.40089441  0.91074025  0.46685274     0.12000
H197        H  0.04628178  0.52622803  0.47991866     0.10900
H198        H  0.06203931  0.50489084  0.43751987     0.11600
H199        H  0.53925224  0.46045801  0.39646823     0.12200
H200        H  0.41535486  0.39293251  0.42245441     0.14100
C201        C  0.46217105  0.39834060  0.88098955     0.79600
N202        N  0.48737584  0.38643428  0.86926689    -0.78700
C203        C  0.47593644  0.36390421  0.84567877     0.82000
N204        N  0.43915356  0.35374981  0.83354070    -0.78700
C205        C  0.41372146  0.36562656  0.84501727     0.82100
N206        N  0.42517601  0.38751266  0.86888683    -0.80400
C207        C  0.35157445  0.47187688  0.74051734     0.79600
N208        N  0.34716187  0.43888431  0.75348459    -0.78700
C209        C  0.33289302  0.43346050  0.77806866     0.82000
N210        N  0.32334198  0.46128441  0.78964671    -0.78700
C211        C  0.32781481  0.49431995  0.77690578     0.82100
N212        N  0.34155235  0.49927509  0.75228864    -0.80400
C213        C  0.24872897  0.18131399  0.88259955     0.79600
N214        N  0.25464516  0.15165453  0.86979807    -0.78700
C215        C  0.26609970  0.15538985  0.84466255     0.82000
N216        N  0.27258476  0.18968062  0.83245565    -0.78700
C217        C  0.26692166  0.21965718  0.84514752     0.82100
N218        N  0.25485746  0.21526613  0.87018448    -0.80400
O219        O  0.32674499  0.36638546  0.77866274    -0.75100
O220        O  0.29018115  0.26254581  0.80947278    -0.75100
O221        O  0.25352858  0.29479005  0.77958076    -0.75200
O222        O  0.36310167  0.33428767  0.80931273    -0.75200
O223        O  0.34773139  0.36023357  0.84499708    -0.75100
O224        O  0.23821362  0.31971311  0.81575488    -0.75100
O225        O  0.27527912  0.28789204  0.84565133    -0.75100
O226        O  0.31073275  0.39158433  0.81441776    -0.75200
Ni227      Ni  0.30895355  0.31363588  0.79296347     1.25400
Ni228      Ni  0.29250888  0.34080145  0.83148298     1.25400
C229        C  0.32366347  0.39560992  0.79113970     0.87100
C230        C  0.27747536  0.25835946  0.83274036     0.87000
C231        C  0.22798748  0.30111097  0.79273720     0.87100
C232        C  0.37306867  0.35306835  0.83237150     0.87200
C233        C  0.13835086  0.25648225  0.74490369     0.79600
N234        N  0.11134075  0.26400396  0.75812859    -0.78700
C235        C  0.12156904  0.28336046  0.78264215     0.82000
N236        N  0.15933235  0.29515979  0.79407540    -0.78700
C237        C  0.18654863  0.28744263  0.78098985     0.82100
N238        N  0.17595782  0.26842566  0.75638056    -0.80400
C239        C  0.13443885  0.46467310  0.74284543     0.79600
N240        N  0.10877796  0.43139055  0.75615652    -0.78700
C241        C  0.11911853  0.42810598  0.78114290     0.82000
N242        N  0.15548969  0.45856653  0.79288988    -0.78700
C243        C  0.18122103  0.99225042  0.77976988     0.82100
N244        N  0.17069625  0.99489620  0.75476183    -0.80400
C245        C  0.45135653  0.16863612  0.88095856     0.79600
N246        N  0.47994155  0.20437696  0.87062139    -0.78700
C247        C  0.47297022  0.21254495  0.84591147     0.82000
N248        N  0.43716310  0.18525261  0.83191912    -0.78700
C249        C  0.40886885  0.14982226  0.84226839     0.82100
N250        N  0.41637414  0.14200754  0.86653262    -0.80400
O251        O  0.03377177  0.28073907  0.84802142    -0.75100
O252        O  0.10182322  0.38554260  0.81761104    -0.75100
O253        O  0.03436238  0.35450759  0.84730425    -0.75200
O254        O  0.10208072  0.31271080  0.81857867    -0.75200
O255        O  0.06086391  0.28868837  0.78222811    -0.75100
O256        O  0.99293481  0.33009824  0.81105062    -0.75100
O257        O  0.06005365  0.36099229  0.78150647    -0.75100
O258        O  0.99321198  0.25734473  0.81139684    -0.75200
Ni259      Ni  0.06944140  0.33418749  0.83424404     1.25400
Ni260      Ni  0.02533184  0.30839009  0.79530774     1.25400
C261        C  0.00178745  0.25201821  0.83465411     0.87100
C262        C  0.09229427  0.39000525  0.79427112     0.87000
C263        C  0.00244979  0.34900638  0.83403004     0.87100
C264        C  0.09326283  0.29496271  0.79530376     0.87200
O265        O  0.27139920  0.09381197  0.84424979    -0.75100
O266        O  0.30336791  0.01840110  0.81255358    -0.75100
O267        O  0.34216152  0.09170388  0.84224805    -0.75200
O268        O  0.23213288  0.01942340  0.81469160    -0.75200
O269        O  0.24714261  0.05367061  0.77836279    -0.75100
O270        O  0.35816272  0.12761358  0.80660133    -0.75100
O271        O  0.31923829  0.05371278  0.77664831    -0.75100
O272        O  0.28637447  0.12842577  0.80808253    -0.75200
Ni273      Ni  0.28669942  0.05467004  0.82970791     1.25400
Ni274      Ni  0.30316211  0.09209631  0.79109327     1.25400
C275        C  0.27460456  0.12414567  0.83159999     0.87100
C276        C  0.31640294  0.02362671  0.78933013     0.87000
C277        C  0.36806903  0.12165510  0.82939170     0.87100
C278        C  0.22189412  0.02365518  0.79161792     0.87200
O279        O  0.16058940  0.13807961  0.53688140    -0.81500
O280        O  0.01231516  0.03450240  0.61041891    -0.66200
O281        O  0.08757261  0.07533532  0.55623948    -1.12800
C282        C  0.00761566  0.12558494  0.02213617     1.05400
O283        O  0.45520583  0.02669558  0.59016887    -0.79400
O284        O  0.47540724  0.01800587  0.53871793    -0.67000
Ni285      Ni  0.14529458  0.10496052  0.56682427     1.34900
C286        C  0.99867354  0.02643500  0.51941845     0.84100
O287        O  0.07362847  0.02328269  0.59643091    -0.80000
O288        O  0.13904328  0.07392279  0.59709854    -0.90200
C289        C  0.47409078  0.02238695  0.60971087     0.83700
O290        O  0.13980732  0.14623510  0.58773660    -0.68400
O291        O  0.47823822  0.09135609  0.52932258    -0.87700
C292        C  0.11593325  0.13793028  0.60666730     0.84500
C293        C  0.11081968  0.03990641  0.60512626     1.06100
H294        H  0.03368460  0.11066375  0.58331072     0.37900
O295        O  0.02832481  0.08780111  0.57078122    -1.10400
O296        O  0.03103702  0.06223527  0.51814942    -0.67000
Ni297      Ni  0.06564509  0.10853034  0.54375093     1.26300
O298        O  0.08453044  0.10178393  0.60854280    -0.67300
O299        O  0.04365341  0.14160589  0.53242263    -0.79600
C300        C  0.14153724  0.14265979  0.51768262     0.83900
O301        O  0.10327208  0.12975484  0.51697299    -0.66700
Ni302      Ni  0.47086478  0.05969916  0.55989134     1.27400
Ni303      Ni  0.05036447  0.05492804  0.58367099     1.26100
H304        H  0.08213683  0.05249665  0.54363083     0.38400
C305        C  0.00107909  0.14454701  0.99914294    -0.05900
C306        C  0.03382549  0.18126380  0.99025851    -0.05800
C307        C  0.03041260  0.19477245  0.96585022    -0.24000
C308        C  0.49432452  0.17163627  0.94975899     0.18200
C309        C  0.46072483  0.13573494  0.95908193     0.15500
C310        C  0.46407394  0.12280798  0.98373995    -0.19000
C311        C  0.42476603  0.11216030  0.94317691    -0.20800
C312        C  0.42229409  0.12330661  0.91803134    -0.13400
C313        C  0.45561413  0.15856612  0.90810954     0.03300
C314        C  0.49154753  0.18301847  0.92431600    -0.25500
H315        H  0.06278987  0.19870198  0.00171111     0.08400
H316        H  0.05649034  0.22247927  0.95921010     0.12000
H317        H  0.43862412  0.09439197  0.99021463     0.11900
H318        H  0.39871628  0.08459760  0.95000376     0.11600
H319        H  0.39391653  0.10383296  0.90632410     0.12200
H320        H  0.51740787  0.21026163  0.91706079     0.14100
C321        C  0.12169047  0.02206798  0.62702001    -0.05900
C322        C  0.16337779  0.03905361  0.63535614    -0.05800
C323        C  0.17416456  0.02867882  0.65880625    -0.24000
C324        C  0.14347476  0.00125906  0.67447845     0.18200
C325        C  0.10155022  0.98195074  0.66563668     0.15500
C326        C  0.09089447  0.99220207  0.64182056    -0.19000
C327        C  0.07098542  0.45426814  0.68138734    -0.20800
C328        C  0.08176132  0.44736367  0.70615742    -0.13400
C329        C  0.12322481  0.96825799  0.71564304     0.03300
C330        C  0.15401031  0.99425943  0.69932282    -0.25500
H331        H  0.18778415  0.06181906  0.62426739     0.08400
H332        H  0.20647028  0.04338157  0.66516559     0.12000
H333        H  0.05865085  0.97881576  0.63565284     0.11900
H334        H  0.03869493  0.43893931  0.67489204     0.11600
H335        H  0.05748755  0.42689878  0.71828069     0.12200
H336        H  0.18617229  0.00996322  0.70621115     0.14100
C337        C  0.12589856  0.16982826  0.62851134    -0.05900
C338        C  0.16679938  0.20174495  0.63449782    -0.05800
C339        C  0.17719784  0.22689304  0.65797076    -0.24000
C340        C  0.14679278  0.22054244  0.67569558     0.18200
C341        C  0.10515571  0.19037902  0.66896506     0.15500
C342        C  0.09499324  0.16537129  0.64541923    -0.19000
C343        C  0.07457865  0.18444620  0.68640490    -0.20800
C344        C  0.08535601  0.20696387  0.71082006    -0.13400
C345        C  0.12688577  0.23542037  0.71826953     0.03300
C346        C  0.15742950  0.24273689  0.70038125    -0.25500
H347        H  0.19108989  0.20578069  0.62173649     0.08400
H348        H  0.20920029  0.25023613  0.66268642     0.12000
H349        H  0.06321871  0.14118602  0.64079174     0.11900
H350        H  0.04247720  0.16165738  0.68143516     0.11600
H351        H  0.06131662  0.20103135  0.72425072     0.12200
H352        H  0.18948023  0.26519877  0.70581849     0.14100
C353        C  0.23710745  0.17711224  0.91009004    -0.05900
C354        C  0.25019997  0.15632222  0.92647569    -0.05800
C355        C  0.23767716  0.14991680  0.95208398    -0.24000
C356        C  0.21083788  0.16311603  0.96150324     0.18200
C357        C  0.19792175  0.18471001  0.94535804     0.15500
C358        C  0.21193330  0.19243308  0.91989583    -0.19000
C359        C  0.16958017  0.19619592  0.95450566    -0.20800
C360        C  0.15233359  0.18407332  0.97870080    -0.13400
C361        C  0.16432575  0.16167966  0.49447657     0.03300
C362        C  0.19484772  0.15282528  0.98622160    -0.25500
H363        H  0.27004309  0.14477674  0.91939792     0.08400
H364        H  0.24782365  0.13332036  0.96420407     0.12000
H365        H  0.20155709  0.20833783  0.90729920     0.11900
H366        H  0.15932022  0.21277311  0.94245510     0.11600
H367        H  0.12883417  0.19122705  0.98481119     0.12200
H368        H  0.20380298  0.13507642  0.49816312     0.14100
C369        C  0.45111043  0.00392468  0.63320758    -0.05900
C370        C  0.46602097  0.98625237  0.65097641    -0.05800
C371        C  0.44749194  0.97341886  0.67475074    -0.24000
C372        C  0.41430167  0.47895612  0.68152563     0.18200
C373        C  0.39866347  0.49610195  0.66363433     0.15500
C374        C  0.41658858  0.00765020  0.63940870    -0.19000
C375        C  0.36652007  0.50313221  0.67074205    -0.20800
C376        C  0.35100146  0.49467824  0.69564296    -0.13400
C377        C  0.36649594  0.47796475  0.71366770     0.03300
C378        C  0.39754043  0.46919938  0.70624966    -0.25500
H379        H  0.49256468  0.98302256  0.64667385     0.08400
H380        H  0.45999585  0.96043355  0.68819240     0.12000
H381        H  0.40514955  0.52174030  0.62605791     0.11900
H382        H  0.35417011  0.51628597  0.65732125     0.11600
H383        H  0.32687425  0.50138107  0.70089204     0.12200
H384        H  0.40993436  0.45668013  0.72013337     0.14100
C385        C  0.98648950  0.49515975  0.99661094    -0.05900
C386        C  0.44570338  0.96171194  0.99277065    -0.05800
C387        C  0.43275407  0.43559345  0.96955258    -0.24000
C388        C  0.46044388  0.44213409  0.94980969     0.18200
C389        C  0.50198303  0.47443830  0.95398220     0.15500
C390        C  0.01465031  0.50077524  0.97721227    -0.19000
C391        C  0.53004707  0.48038487  0.93462489    -0.20800
C392        C  0.51702512  0.45497747  0.91119698    -0.13400
C393        C  0.47554848  0.42373616  0.90640107     0.03300
C394        C  0.44731718  0.41733693  0.92587016    -0.25500
H395        H  0.42331805  0.95666010  0.00730319     0.08400
H396        H  0.40088712  0.91074609  0.96685081     0.12000
H397        H  0.04628529  0.52620679  0.97992844     0.10900
H398        H  0.06204364  0.50486704  0.93753143     0.11600
H399        H  0.53925554  0.46044187  0.89647720     0.12200
H400        H  0.41534982  0.39293780  0.92245310     0.14100
C401        C  0.46217111  0.89834111  0.38098755     0.79600
N402        N  0.48737473  0.88643191  0.36926602    -0.78700
C403        C  0.47593339  0.86389793  0.34567906     0.82000
N404        N  0.43915037  0.85374320  0.33354106    -0.78700
C405        C  0.41371969  0.86562280  0.34501654     0.82100
N406        N  0.42517581  0.88751231  0.36888493    -0.80400
C407        C  0.35156746  0.97187172  0.24051632     0.79600
N408        N  0.34715586  0.93887912  0.25348325    -0.78700
C409        C  0.33288733  0.93345458  0.27806747     0.82000
N410        N  0.32333515  0.96127742  0.28964589    -0.78700
C411        C  0.32780668  0.99431270  0.27690530     0.82100
N412        N  0.34154448  0.99926890  0.25228824    -0.80400
C413        C  0.24873245  0.68131540  0.38260236     0.79600
N414        N  0.25464742  0.65165440  0.36980173    -0.78700
C415        C  0.26609962  0.65538711  0.34466558     0.82000
N416        N  0.27258375  0.68967671  0.33245751    -0.78700
C417        C  0.26692196  0.71965457  0.34514870     0.82100
N418        N  0.25485988  0.71526599  0.37018602    -0.80400
O419        O  0.32674222  0.86638060  0.27866206    -0.75100
O420        O  0.29017949  0.76254141  0.30947285    -0.75100
O421        O  0.25352650  0.79478545  0.27958070    -0.75200
O422        O  0.36309964  0.83428329  0.30931222    -0.75200
O423        O  0.34772978  0.86023004  0.34499637    -0.75100
O424        O  0.23821149  0.81970850  0.31575481    -0.75100
O425        O  0.27527814  0.78788849  0.34565131    -0.75100
O426        O  0.31072985  0.89157951  0.31441699    -0.75200
Ni427      Ni  0.30895141  0.81363127  0.29296317     1.25400
Ni428      Ni  0.29250699  0.84079729  0.33148260     1.25400
C429        C  0.32365986  0.89560476  0.29113877     0.87100
C430        C  0.27747449  0.75835579  0.33274062     0.87000
C431        C  0.22798563  0.80110690  0.29273699     0.87100
C432        C  0.37306685  0.85306444  0.33237085     0.87200
C433        C  0.13835287  0.75648467  0.24490119     0.79600
N434        N  0.11134151  0.76400427  0.25812617    -0.78700
C435        C  0.12156780  0.78335758  0.28264058     0.82000
N436        N  0.15933036  0.79515571  0.29407460    -0.78700
C437        C  0.18654770  0.78744032  0.28098894     0.82100
N438        N  0.17595890  0.76842663  0.25637880    -0.80400
C439        C  0.13444193  0.96465806  0.24284339     0.79600
N440        N  0.10877949  0.93137713  0.25615505    -0.78700
C441        C  0.11911546  0.92809690  0.28114346     0.82000
N442        N  0.15548381  0.95856003  0.29289199    -0.78700
C443        C  0.18121633  0.49224269  0.27977151     0.82100
N444        N  0.17069606  0.49488423  0.25476147    -0.80400
C445        C  0.45135740  0.66861990  0.38095264     0.79600
N446        N  0.47994104  0.70436255  0.37061662    -0.78700
C447        C  0.47296746  0.71253359  0.34590813     0.82000
N448        N  0.43715914  0.68524295  0.33191635    -0.78700
C449        C  0.40886611  0.64981118  0.34226484     0.82100
N450        N  0.41637395  0.64199314  0.36652734    -0.80400
O451        O  0.03376732  0.78072884  0.34802005    -0.75100
O452        O  0.10181840  0.88553441  0.31761199    -0.75100
O453        O  0.03435745  0.85449786  0.34730499    -0.75200
O454        O  0.10207682  0.81270333  0.31857804    -0.75200
O455        O  0.06086072  0.78868228  0.28222716    -0.75100
O456        O  0.99293031  0.83008985  0.31105118    -0.75100
O457        O  0.06004928  0.86098510  0.28150719    -0.75100
O458        O  0.99320804  0.75733611  0.31139523    -0.75200
Ni459      Ni  0.06943671  0.83417844  0.33424403     1.25400
Ni460      Ni  0.02532771  0.80838251  0.29530745     1.25400
C461        C  0.00178366  0.75200824  0.33465206     0.87100
C462        C  0.09229001  0.88999735  0.29427201     0.87000
C463        C  0.00244543  0.84899785  0.33403071     0.87100
C464        C  0.09325993  0.79495702  0.29530269     0.87200
O465        O  0.27139672  0.59380732  0.34425247    -0.75100
O466        O  0.30336027  0.51839334  0.31255381    -0.75100
O467        O  0.34215752  0.59169629  0.34224740    -0.75200
O468        O  0.23212660  0.51941804  0.31469434    -0.75200
O469        O  0.24713552  0.55366457  0.27836523    -0.75100
O470        O  0.35815670  0.62760586  0.30660061    -0.75100
O471        O  0.31922971  0.55370517  0.27664859    -0.75100
O472        O  0.28636967  0.62841993  0.30808477    -0.75200
Ni473      Ni  0.28669427  0.55466373  0.32970926     1.25400
Ni474      Ni  0.30315527  0.59208951  0.29109442     1.25400
C475        C  0.27460200  0.62414112  0.33160277     0.87100
C476        C  0.31639459  0.52361895  0.28933015     0.87000
C477        C  0.36806460  0.62164649  0.32939016     0.87100
C478        C  0.22188771  0.52364912  0.29162050     0.87200
O479        O  0.16059403  0.63807317  0.03688282    -0.81500
O480        O  0.01231610  0.53449758  0.11042113    -0.66200
O481        O  0.08757626  0.57532788  0.05624177    -1.12800
C482        C  0.00760765  0.62558855  0.52213738     1.05400
O483        O  0.45520977  0.52669825  0.09017072    -0.79400
O484        O  0.47540781  0.51800167  0.03872088    -0.67000
Ni485      Ni  0.14529867  0.60495329  0.06682565     1.34900
C486        C  0.99867438  0.52642735  0.01942181     0.84100
O487        O  0.07363131  0.52327730  0.09643498    -0.80000
O488        O  0.13904728  0.57391503  0.09709951    -0.90200
C489        C  0.47409217  0.52238549  0.10971242     0.83700
O490        O  0.13981271  0.64622849  0.08773830    -0.68400
O491        O  0.47824474  0.59135390  0.02932189    -0.87700
C492        C  0.11593829  0.63792508  0.10666872     0.84500
C493        C  0.11082372  0.53989943  0.10512814     1.06100
H494        H  0.03369171  0.61066140  0.08331114     0.37900
O495        O  0.02833019  0.58779735  0.07078225    -1.10400
O496        O  0.03103968  0.56222594  0.01815192    -0.67000
Ni497      Ni  0.06565002  0.60852285  0.04375151     1.26300
O498        O  0.08453490  0.60177918  0.10854470    -0.67300
O499        O  0.04366115  0.64159986  0.03242139    -0.79600
C500        C  0.14154131  0.64265064  0.01768319     0.83900
O501        O  0.10327570  0.62974277  0.01697278    -0.66700
Ni502      Ni  0.47087008  0.55969920  0.05989232     1.27400
Ni503      Ni  0.05036778  0.55492278  0.08367353     1.26100
H504        H  0.08213995  0.55248830  0.04363376     0.38400
C505        C  0.00106934  0.64454763  0.49914354    -0.05900
C506        C  0.03381130  0.68127028  0.49026190    -0.05800
C507        C  0.03039961  0.69477545  0.46585214    -0.24000
C508        C  0.49431770  0.67162935  0.44975670     0.18200
C509        C  0.46072219  0.63572136  0.45907671     0.15500
C510        C  0.46406930  0.62279865  0.48373633    -0.19000
C511        C  0.42477019  0.61213605  0.44316742    -0.20800
C512        C  0.42230047  0.62327977  0.41802091    -0.13400
C513        C  0.45561565  0.65854765  0.40810264     0.03300
C514        C  0.49154279  0.68300893  0.42431273    -0.25500
H515        H  0.06277176  0.69871576  0.50171787     0.08400
H516        H  0.05647399  0.72248740  0.45921422     0.12000
H517        H  0.43862320  0.59437776  0.49020878     0.11900
H518        H  0.39872410  0.58456764  0.44999189     0.11600
H519        H  0.39392800  0.60379825  0.40631055     0.12200
H520        H  0.51739931  0.71025838  0.41706013     0.14100
C521        C  0.12169709  0.52205971  0.12702021    -0.05900
C522        C  0.16338461  0.53905211  0.13535866    -0.05800
C523        C  0.17417210  0.52867582  0.15880797    -0.24000
C524        C  0.14348288  0.50124732  0.17447693     0.18200
C525        C  0.10155908  0.48193090  0.16563197     0.15500
C526        C  0.09090260  0.49218434  0.14181686    -0.19000
C527        C  0.07099498  0.95423887  0.18137906    -0.20800
C528        C  0.08176982  0.94733502  0.20614956    -0.13400
C529        C  0.12323154  0.46823909  0.21563918     0.03300
C530        C  0.15401750  0.49424783  0.19932167    -0.25500
H531        H  0.18779025  0.56182448  0.12427282     0.08400
H532        H  0.20647743  0.54338461  0.16516953     0.12000
H533        H  0.05865890  0.47879222  0.13564729     0.11900
H534        H  0.03870523  0.93890300  0.17488101     0.11600
H535        H  0.05749579  0.92686361  0.21827031     0.12200
H536        H  0.18617851  0.50995880  0.20621284     0.14100
C537        C  0.12590279  0.66982491  0.12851155    -0.05900
C538        C  0.16680220  0.70174703  0.13449556    -0.05800
C539        C  0.17719992  0.72689851  0.15796714    -0.24000
C540        C  0.14679552  0.72054557  0.17569307     0.18200
C541        C  0.10515951  0.69037641  0.16896472     0.15500
C542        C  0.09499782  0.66536584  0.14542028    -0.19000
C543        C  0.07458275  0.68444057  0.18640541    -0.20800
C544        C  0.08535954  0.70696074  0.21081957    -0.13400
C545        C  0.12688849  0.73542287  0.21826717     0.03300
C546        C  0.15743183  0.74274284  0.20037788    -0.25500
H547        H  0.19109243  0.70578499  0.12173335     0.08400
H548        H  0.20920147  0.75024606  0.16268097     0.12000
H549        H  0.06322419  0.64117678  0.14079462     0.11900
H550        H  0.04248212  0.66164716  0.18143727     0.11600
H551        H  0.06132062  0.70102532  0.22425117     0.12200
H552        H  0.18948187  0.76520890  0.20581390     0.14100
C553        C  0.23711089  0.67711661  0.41009279    -0.05900
C554        C  0.25020575  0.65633153  0.42648100    -0.05800
C555        C  0.23768203  0.64992890  0.45208927    -0.24000
C556        C  0.21083938  0.66312569  0.46150572     0.18200
C557        C  0.19792131  0.68471517  0.44535792     0.15500
C558        C  0.21193400  0.69243585  0.41989593    -0.19000
C559        C  0.16957649  0.69619856  0.45450268    -0.20800
C560        C  0.15232839  0.68407739  0.47869758    -0.13400
C561        C  0.16432934  0.66167158  0.99447724     0.03300
C562        C  0.19484761  0.65283651  0.48622376    -0.25500
H563        H  0.27005115  0.64478768  0.41940519     0.08400
H564        H  0.24783017  0.63333608  0.46421149     0.12000
H565        H  0.20155620  0.70833700  0.40729728     0.11900
H566        H  0.15931515  0.71277240  0.44245002     0.11600
H567        H  0.12882652  0.69122890  0.48480574     0.12200
H568        H  0.20380146  0.63506184  0.99815896     0.14100
C569        C  0.45110790  0.50392152  0.13320761    -0.05900
C570        C  0.46600486  0.48623093  0.15097164    -0.05800
C571        C  0.44747042  0.47339222  0.17474405    -0.24000
C572        C  0.41428924  0.97894335  0.18152210     0.18200
C573        C  0.39866487  0.99610789  0.16363540     0.15500
C574        C  0.41659441  0.50766066  0.13941140    -0.19000
C575        C  0.36653117  0.00315188  0.17074621    -0.20800
C576        C  0.35100926  0.99469349  0.19564603    -0.13400
C577        C  0.36649048  0.97796216  0.21366674     0.03300
C578        C  0.39752438  0.96918249  0.20624503    -0.25500
H579        H  0.49254167  0.48299004  0.14666662     0.08400
H580        H  0.45996355  0.46039214  0.18818209     0.12000
H581        H  0.40516590  0.02176462  0.12606422     0.11900
H582        H  0.35419184  0.01631998  0.15732888     0.11600
H583        H  0.32689025  0.00140754  0.20089749     0.12200
H584        H  0.40990825  0.95664917  0.22012534     0.14100
C585        C  0.98649056  0.99516894  0.49660654    -0.05900
C586        C  0.44570751  0.46171415  0.49276905    -0.05800
C587        C  0.43275912  0.93559363  0.46955190    -0.24000
C588        C  0.46044665  0.94213899  0.44980685     0.18200
C589        C  0.50198294  0.97445132  0.45397582     0.15500
C590        C  0.01464926  0.00079071  0.47720504    -0.19000
C591        C  0.53004494  0.98040229  0.43461619    -0.20800
C592        C  0.51702368  0.95499060  0.41118980    -0.13400
C593        C  0.47554945  0.92374085  0.40639762     0.03300
C594        C  0.44732030  0.91733789  0.42586877    -0.25500
H595        H  0.42332368  0.45665728  0.50730356     0.08400
H596        H  0.40089436  0.41074026  0.46685268     0.12000
H597        H  0.04628180  0.02622799  0.47991867     0.10900
H598        H  0.06203934  0.00489079  0.43751987     0.11600
H599        H  0.53925224  0.96045806  0.39646824     0.12200
H600        H  0.41535488  0.89293253  0.42245446     0.14100
C601        C  0.46217107  0.89834060  0.88098955     0.79600
N602        N  0.48737587  0.88643427  0.86926689    -0.78700
C603        C  0.47593646  0.86390419  0.84567877     0.82000
N604        N  0.43915358  0.85374979  0.83354070    -0.78700
C605        C  0.41372148  0.86562654  0.84501727     0.82100
N606        N  0.42517603  0.88751266  0.86888683    -0.80400
C607        C  0.35157441  0.97187685  0.74051733     0.79600
N608        N  0.34716185  0.93888430  0.75348459    -0.78700
C609        C  0.33289305  0.93346051  0.77806868     0.82000
N610        N  0.32334204  0.96128444  0.78964673    -0.78700
C611        C  0.32781485  0.99431997  0.77690579     0.82100
N612        N  0.34155234  0.99927509  0.75228864    -0.80400
C613        C  0.24872897  0.68131397  0.88259955     0.79600
N614        N  0.25464515  0.65165451  0.86979807    -0.78700
C615        C  0.26609970  0.65538985  0.84466256     0.82000
N616        N  0.27258478  0.68968063  0.83245566    -0.78700
C617        C  0.26692168  0.71965718  0.84514754     0.82100
N618        N  0.25485747  0.71526612  0.87018450    -0.80400
O619        O  0.32674502  0.86638547  0.77866276    -0.75100
O620        O  0.29018116  0.76254582  0.80947280    -0.75100
O621        O  0.25352860  0.79479007  0.77958078    -0.75200
O622        O  0.36310169  0.83428766  0.80931274    -0.75200
O623        O  0.34773142  0.86023357  0.84499709    -0.75100
O624        O  0.23821364  0.81971313  0.81575490    -0.75100
O625        O  0.27527915  0.78789205  0.84565135    -0.75100
O626        O  0.31073278  0.89158434  0.81441777    -0.75200
Ni627      Ni  0.30895357  0.81363589  0.79296348     1.25400
Ni628      Ni  0.29250891  0.84080146  0.83148299     1.25400
C629        C  0.32366350  0.89560994  0.79113972     0.87100
C630        C  0.27747538  0.75835947  0.83274037     0.87000
C631        C  0.22798750  0.80111098  0.79273722     0.87100
C632        C  0.37306869  0.85306835  0.83237150     0.87200
C633        C  0.13835088  0.75648226  0.74490370     0.79600
N634        N  0.11134076  0.76400395  0.75812861    -0.78700
C635        C  0.12156904  0.78336044  0.78264218     0.82000
N636        N  0.15933236  0.79515978  0.79407542    -0.78700
C637        C  0.18654865  0.78744263  0.78098986     0.82100
N638        N  0.17595784  0.76842568  0.75638057    -0.80400
C639        C  0.13443890  0.96467310  0.74284544     0.79600
N640        N  0.10877801  0.93139055  0.75615653    -0.78700
C641        C  0.11911858  0.92810598  0.78114291     0.82000
N642        N  0.15548973  0.95856653  0.79288989    -0.78700
C643        C  0.18122099  0.49225042  0.77976986     0.82100
N644        N  0.17069621  0.49489620  0.75476181    -0.80400
C645        C  0.45135652  0.66863607  0.88095855     0.79600
N646        N  0.47994154  0.70437691  0.87062138    -0.78700
C647        C  0.47297021  0.71254490  0.84591146     0.82000
N648        N  0.43716308  0.68525256  0.83191911    -0.78700
C649        C  0.40886883  0.64982221  0.84226838     0.82100
N650        N  0.41637412  0.64200749  0.86653261    -0.80400
O651        O  0.03377178  0.78073906  0.84802144    -0.75100
O652        O  0.10182325  0.88554260  0.81761106    -0.75100
O653        O  0.03436240  0.85450759  0.84730428    -0.75200
O654        O  0.10208073  0.81271078  0.81857869    -0.75200
O655        O  0.06086392  0.78868836  0.78222814    -0.75100
O656        O  0.99293483  0.83009826  0.81105065    -0.75100
O657        O  0.06005368  0.86099229  0.78150649    -0.75100
O658        O  0.99321199  0.75734473  0.81139686    -0.75200
Ni659      Ni  0.06944141  0.83418748  0.83424407     1.25400
Ni660      Ni  0.02533186  0.80839009  0.79530776     1.25400
C661        C  0.00178745  0.75201820  0.83465412     0.87100
C662        C  0.09229430  0.89000525  0.79427114     0.87000
C663        C  0.00244981  0.84900638  0.83403008     0.87100
C664        C  0.09326284  0.79496269  0.79530378     0.87200
O665        O  0.27139918  0.59381195  0.84424979    -0.75100
O666        O  0.30336786  0.51840106  0.81255357    -0.75100
O667        O  0.34216149  0.59170384  0.84224804    -0.75200
O668        O  0.23213285  0.51942339  0.81469159    -0.75200
O669        O  0.24714258  0.55367061  0.77836278    -0.75100
O670        O  0.35816270  0.62761354  0.80660132    -0.75100
O671        O  0.31923824  0.55371275  0.77664830    -0.75100
O672        O  0.28637446  0.62842576  0.80808253    -0.75200
Ni673      Ni  0.28669938  0.55467001  0.82970790     1.25400
Ni674      Ni  0.30316209  0.59209628  0.79109327     1.25400
C675        C  0.27460456  0.62414566  0.83159999     0.87100
C676        C  0.31640289  0.52362667  0.78933012     0.87000
C677        C  0.36806901  0.62165505  0.82939169     0.87100
C678        C  0.22189409  0.52365517  0.79161791     0.87200
O679        O  0.16058945  0.63807965  0.53688140    -0.81500
O680        O  0.01231515  0.53450244  0.61041889    -0.66200
O681        O  0.08757264  0.57533538  0.55623949    -1.12800
C682        C  0.00761560  0.62558487  0.02213618     1.05400
O683        O  0.45520580  0.52669553  0.59016886    -0.79400
O684        O  0.47540720  0.51800583  0.53871790    -0.67000
Ni685      Ni  0.14529460  0.60496054  0.56682427     1.34900
C686        C  0.99867353  0.52643506  0.51941844     0.84100
O687        O  0.07362844  0.52328269  0.59643090    -0.80000
O688        O  0.13904326  0.57392277  0.59709853    -0.90200
C689        C  0.47409075  0.52238688  0.60971085     0.83700
O690        O  0.13980735  0.64623511  0.58773661    -0.68400
O691        O  0.47823817  0.59135606  0.52932258    -0.87700
C692        C  0.11593327  0.63793028  0.60666731     0.84500
C693        C  0.11081965  0.53990640  0.60512625     1.06100
H694        H  0.03368469  0.61066391  0.58331074     0.37900
O695        O  0.02832485  0.58780115  0.57078118    -1.10400
O696        O  0.03103704  0.56223531  0.51814941    -0.67000
Ni697      Ni  0.06564514  0.60853039  0.54375091     1.26300
O698        O  0.08453045  0.60178394  0.60854280    -0.67300
O699        O  0.04365351  0.64160596  0.53242260    -0.79600
C700        C  0.14153730  0.64265980  0.51768260     0.83900
O701        O  0.10327214  0.62975483  0.51697296    -0.66700
Ni702      Ni  0.47086474  0.55969911  0.55989133     1.27400
Ni703      Ni  0.05036448  0.55492808  0.58367097     1.26100
H704        H  0.08213684  0.55249662  0.54363079     0.38400
C705        C  0.00107901  0.64454693  0.99914295    -0.05900
C706        C  0.03382539  0.68126378  0.99025855    -0.05800
C707        C  0.03041250  0.69477242  0.96585026    -0.24000
C708        C  0.49432455  0.67163624  0.94975897     0.18200
C709        C  0.46072485  0.63573495  0.95908193     0.15500
C710        C  0.46407396  0.62280802  0.98373996    -0.19000
C711        C  0.42476602  0.61216031  0.94317693    -0.20800
C712        C  0.42229408  0.62330659  0.91803135    -0.13400
C713        C  0.45561412  0.65856608  0.90810953     0.03300
C714        C  0.49154754  0.68301842  0.92431597    -0.25500
H715        H  0.06278974  0.69870199  0.00171117     0.08400
H716        H  0.05649022  0.72247929  0.95921017     0.12000
H717        H  0.43862413  0.59439204  0.99021466     0.11900
H718        H  0.39871627  0.58459763  0.95000379     0.11600
H719        H  0.39391651  0.60383295  0.90632411     0.12200
H720        H  0.51740789  0.71026156  0.91706075     0.14100
C721        C  0.12169043  0.52206797  0.62702000    -0.05900
C722        C  0.16337775  0.53905361  0.63535613    -0.05800
C723        C  0.17416452  0.52867882  0.65880625    -0.24000
C724        C  0.14347471  0.50125906  0.67447844     0.18200
C725        C  0.10155017  0.48195074  0.66563667     0.15500
C726        C  0.09089442  0.49220207  0.64182055    -0.19000
C727        C  0.07098547  0.95426814  0.68138735    -0.20800
C728        C  0.08176137  0.94736367  0.70615743    -0.13400
C729        C  0.12322476  0.46825799  0.71564303     0.03300
C730        C  0.15401026  0.49425943  0.69932281    -0.25500
H731        H  0.18778412  0.56181905  0.62426738     0.08400
H732        H  0.20647023  0.54338157  0.66516559     0.12000
H733        H  0.05865081  0.47881576  0.63565283     0.11900
H734        H  0.03869498  0.93893931  0.67489205     0.11600
H735        H  0.05748760  0.92689878  0.71828070     0.12200
H736        H  0.18617224  0.50996322  0.70621114     0.14100
C737        C  0.12589859  0.66982825  0.62851136    -0.05900
C738        C  0.16679942  0.70174491  0.63449785    -0.05800
C739        C  0.17719788  0.72689299  0.65797079    -0.24000
C740        C  0.14679281  0.72054243  0.67569560     0.18200
C741        C  0.10515573  0.69037904  0.66896507     0.15500
C742        C  0.09499327  0.66537130  0.64541924    -0.19000
C743        C  0.07457867  0.68444626  0.68640489    -0.20800
C744        C  0.08535602  0.70696393  0.71082006    -0.13400
C745        C  0.12688579  0.73542039  0.71826954     0.03300
C746        C  0.15742952  0.74273688  0.70038127    -0.25500
H747        H  0.19108993  0.70578063  0.62173654     0.08400
H748        H  0.20920033  0.75023606  0.66268646     0.12000
H749        H  0.06321873  0.64118606  0.64079174     0.11900
H750        H  0.04247722  0.66165746  0.68143514     0.11600
H751        H  0.06131663  0.70103144  0.72425070     0.12200
H752        H  0.18948026  0.76519873  0.70581852     0.14100
C753        C  0.23710743  0.67711220  0.91009004    -0.05900
C754        C  0.25019986  0.65632208  0.92647568    -0.05800
C755        C  0.23767704  0.64991666  0.95208396    -0.24000
C756        C  0.21083785  0.66311598  0.96150325     0.18200
C757        C  0.19792180  0.68471006  0.94535807     0.15500
C758        C  0.21193336  0.69243313  0.91989586    -0.19000
C759        C  0.16958031  0.69619607  0.95450572    -0.20800
C760        C  0.15233373  0.68407348  0.97870085    -0.13400
C761        C  0.16432581  0.66167967  0.49447655     0.03300
C762        C  0.19484768  0.65282524  0.98622160    -0.25500
H763        H  0.27004291  0.64477653  0.91939790     0.08400
H764        H  0.24782346  0.63332015  0.96420404     0.12000
H765        H  0.20155720  0.70833794  0.90729925     0.11900
H766        H  0.15932043  0.71277334  0.94245518     0.11600
H767        H  0.12883436  0.69122729  0.98481127     0.12200
H768        H  0.20380308  0.63507647  0.49816311     0.14100
C769        C  0.45111041  0.50392462  0.63320756    -0.05900
C770        C  0.46602093  0.48625226  0.65097638    -0.05800
C771        C  0.44749191  0.47341878  0.67475071    -0.24000
C772        C  0.41430166  0.97895614  0.68152564     0.18200
C773        C  0.39866343  0.99610192  0.66363433     0.15500
C774        C  0.41658860  0.50765020  0.63940870    -0.19000
C775        C  0.36651999  0.00313213  0.67074203    -0.20800
C776        C  0.35100137  0.99467815  0.69564294    -0.13400
C777        C  0.36649588  0.97796471  0.71366769     0.03300
C778        C  0.39754041  0.96919938  0.70624966    -0.25500
H779        H  0.49256460  0.48302240  0.64667380     0.08400
H780        H  0.45999579  0.46043343  0.68819237     0.12000
H781        H  0.40514950  0.02174026  0.62605790     0.11900
H782        H  0.35417000  0.01628585  0.65732122     0.11600
H783        H  0.32687413  0.00138094  0.70089201     0.12200
H784        H  0.40993436  0.95668017  0.72013338     0.14100
C785        C  0.98648946  0.99515975  0.99661097    -0.05900
C786        C  0.44570334  0.46171198  0.99277064    -0.05800
C787        C  0.43275411  0.93559342  0.96955258    -0.24000
C788        C  0.46044390  0.94213410  0.94980968     0.18200
C789        C  0.50198304  0.97443834  0.95398217     0.15500
C790        C  0.01465024  0.00077527  0.97721228    -0.19000
C791        C  0.53004707  0.98038495  0.93462485    -0.20800
C792        C  0.51702513  0.95497754  0.91119695    -0.13400
C793        C  0.47554850  0.92373618  0.90640105     0.03300
C794        C  0.44731721  0.91733692  0.92587016    -0.25500
H795        H  0.42331800  0.45666017  0.00730317     0.08400
H796        H  0.40088708  0.41074615  0.96685080     0.12000
H797        H  0.04628520  0.02620688  0.97992842     0.10900
H798        H  0.06204354  0.00486717  0.93753141     0.11600
H799        H  0.53925554  0.96044195  0.89647716     0.12200
H800        H  0.41534986  0.89293776  0.92245311     0.14100
C801        C  0.96217111  0.39834111  0.38098753     0.79600
N802        N  0.98737473  0.38643192  0.36926601    -0.78700
C803        C  0.97593339  0.36389794  0.34567905     0.82000
N804        N  0.93915037  0.35374320  0.33354105    -0.78700
C805        C  0.91371969  0.36562280  0.34501653     0.82100
N806        N  0.92517580  0.38751231  0.36888492    -0.80400
C807        C  0.85156745  0.47187167  0.24051631     0.79600
N808        N  0.84715584  0.43887907  0.25348325    -0.78700
C809        C  0.83288731  0.43345454  0.27806747     0.82000
N810        N  0.82333515  0.46127739  0.28964588    -0.78700
C811        C  0.82780669  0.49431268  0.27690529     0.82100
N812        N  0.84154449  0.49926887  0.25228824    -0.80400
C813        C  0.74873245  0.18131540  0.38260239     0.79600
N814        N  0.75464741  0.15165439  0.36980175    -0.78700
C815        C  0.76609961  0.15538710  0.34466560     0.82000
N816        N  0.77258374  0.18967670  0.33245753    -0.78700
C817        C  0.76692197  0.21965456  0.34514872     0.82100
N818        N  0.75485989  0.21526598  0.37018604    -0.80400
O819        O  0.82674220  0.36638056  0.27866206    -0.75100
O820        O  0.79017948  0.26254139  0.30947286    -0.75100
O821        O  0.75352648  0.29478541  0.27958070    -0.75200
O822        O  0.86309963  0.33428327  0.30931222    -0.75200
O823        O  0.84772977  0.36023004  0.34499636    -0.75100
O824        O  0.73821147  0.31970845  0.31575482    -0.75100
O825        O  0.77527814  0.28788848  0.34565132    -0.75100
O826        O  0.81072981  0.39157948  0.31441699    -0.75200
Ni827      Ni  0.80895139  0.31363123  0.29296318     1.25400
Ni828      Ni  0.79250698  0.34079727  0.33148261     1.25400
C829        C  0.82365983  0.39560472  0.29113877     0.87100
C830        C  0.77747450  0.25835577  0.33274063     0.87000
C831        C  0.72798561  0.30110686  0.29273700     0.87100
C832        C  0.87306685  0.35306443  0.33237084     0.87200
C833        C  0.63835285  0.25648465  0.24490119     0.79600
N834        N  0.61134149  0.26400424  0.25812618    -0.78700
C835        C  0.62156777  0.28335753  0.28264059     0.82000
N836        N  0.65933033  0.29515565  0.29407462    -0.78700
C837        C  0.68654768  0.28744027  0.28098895     0.82100
N838        N  0.67595888  0.26842660  0.25637880    -0.80400
C839        C  0.63444194  0.46465804  0.24284338     0.79600
N840        N  0.60877950  0.43137710  0.25615503    -0.78700
C841        C  0.61911548  0.42809687  0.28114344     0.82000
N842        N  0.65548383  0.45856000  0.29289198    -0.78700
C843        C  0.68121634  0.99224268  0.27977151     0.82100
N844        N  0.67069607  0.99488423  0.25476147    -0.80400
C845        C  0.95135741  0.16861990  0.38095265     0.79600
N846        N  0.97994106  0.20436254  0.37061663    -0.78700
C847        C  0.97296748  0.21253358  0.34590814     0.82000
N848        N  0.93715915  0.18524294  0.33191636    -0.78700
C849        C  0.90886611  0.14981118  0.34226486     0.82100
N850        N  0.91637396  0.14199314  0.36652735    -0.80400
O851        O  0.53376731  0.28072885  0.34802006    -0.75100
O852        O  0.60181841  0.38553439  0.31761199    -0.75100
O853        O  0.53435746  0.35449787  0.34730498    -0.75200
O854        O  0.60207681  0.31270330  0.31857805    -0.75200
O855        O  0.56086071  0.28868224  0.28222717    -0.75100
O856        O  0.49293032  0.33008986  0.31105117    -0.75100
O857        O  0.56004929  0.36098507  0.28150718    -0.75100
O858        O  0.49320803  0.25733611  0.31139524    -0.75200
Ni859      Ni  0.56943671  0.33417844  0.33424403     1.25400
Ni860      Ni  0.52532771  0.30838249  0.29530745     1.25400
C861        C  0.50178365  0.25200824  0.33465207     0.87100
C862        C  0.59229002  0.38999733  0.29427200     0.87000
C863        C  0.50244544  0.34899786  0.33403070     0.87100
C864        C  0.59325992  0.29495698  0.29530270     0.87200
O865        O  0.77139669  0.09380730  0.34425248    -0.75100
O866        O  0.80336031  0.01839337  0.31255383    -0.75100
O867        O  0.84215752  0.09169631  0.34224743    -0.75200
O868        O  0.73212662  0.01941803  0.31469434    -0.75200
O869        O  0.74713553  0.05366458  0.27836525    -0.75100
O870        O  0.85815670  0.12760587  0.30660062    -0.75100
O871        O  0.81922971  0.05370518  0.27664861    -0.75100
O872        O  0.78636968  0.12841994  0.30808479    -0.75200
Ni873      Ni  0.78669428  0.05466374  0.32970928     1.25400
Ni874      Ni  0.80315528  0.09208952  0.29109443     1.25400
C875        C  0.77460199  0.12414111  0.33160279     0.87100
C876        C  0.81639461  0.02361898  0.28933017     0.87000
C877        C  0.86806460  0.12164651  0.32939018     0.87100
C878        C  0.72188772  0.02364912  0.29162050     0.87200
O879        O  0.66059404  0.13807317  0.03688281    -0.81500
O880        O  0.51231611  0.03449758  0.11042113    -0.66200
O881        O  0.58757627  0.07532787  0.05624177    -1.12800
C882        C  0.50760763  0.12558853  0.52213739     1.05400
O883        O  0.95520976  0.02669831  0.09017073    -0.79400
O884        O  0.97540778  0.01800169  0.03872089    -0.67000
Ni885      Ni  0.64529869  0.10495328  0.06682564     1.34900
C886        C  0.49867439  0.02642735  0.01942183     0.84100
O887        O  0.57363132  0.02327730  0.09643498    -0.80000
O888        O  0.63904730  0.07391501  0.09709950    -0.90200
C889        C  0.97409215  0.02238555  0.10971243     0.83700
O890        O  0.63981274  0.14622848  0.08773831    -0.68400
O891        O  0.97824474  0.09135394  0.02932189    -0.87700
C892        C  0.61593830  0.13792507  0.10666873     0.84500
C893        C  0.61082373  0.03989943  0.10512815     1.06100
H894        H  0.53369172  0.11066139  0.08331114     0.37900
O895        O  0.52833021  0.08779737  0.07078226    -1.10400
O896        O  0.53103969  0.06222594  0.01815193    -0.67000
Ni897      Ni  0.56565003  0.10852285  0.04375151     1.26300
O898        O  0.58453492  0.10177917  0.10854471    -0.67300
O899        O  0.54366117  0.14159986  0.03242140    -0.79600
C900        C  0.64154131  0.14265062  0.01768318     0.83900
O901        O  0.60327570  0.12974273  0.01697277    -0.66700
Ni902      Ni  0.97087008  0.05969925  0.05989233     1.27400
Ni903      Ni  0.55036780  0.05492278  0.08367354     1.26100
H904        H  0.58213996  0.05248829  0.04363377     0.38400
C905        C  0.50106933  0.14454763  0.49914355    -0.05900
C906        C  0.53381130  0.18127026  0.49026190    -0.05800
C907        C  0.53039962  0.19477543  0.46585215    -0.24000
C908        C  0.99431769  0.17162932  0.44975671     0.18200
C909        C  0.96072219  0.13572130  0.45907671     0.15500
C910        C  0.96406930  0.12279858  0.48373632    -0.19000
C911        C  0.92477021  0.11213598  0.44316741    -0.20800
C912        C  0.92230050  0.12327972  0.41802090    -0.13400
C913        C  0.95561566  0.15854763  0.40810265     0.03300
C914        C  0.99154278  0.18300892  0.42431275    -0.25500
H915        H  0.56277177  0.19871572  0.50171787     0.08400
H916        H  0.55647401  0.22248738  0.45921423     0.12000
H917        H  0.93862320  0.09437766  0.49020876     0.11900
H918        H  0.89872413  0.08456754  0.44999186     0.11600
H919        H  0.89392804  0.10379819  0.40631053     0.12200
H920        H  0.01739929  0.21025839  0.41706016     0.14100
C921        C  0.62169709  0.02205973  0.12702023    -0.05900
C922        C  0.66338461  0.03905212  0.13535868    -0.05800
C923        C  0.67417211  0.02867585  0.15880799    -0.24000
C924        C  0.64348288  0.00124735  0.17447694     0.18200
C925        C  0.60155908  0.98193094  0.16563199     0.15500
C926        C  0.59090261  0.99218437  0.14181687    -0.19000
C927        C  0.57099498  0.45423886  0.18137905    -0.20800
C928        C  0.58176982  0.44733502  0.20614956    -0.13400
C929        C  0.62323154  0.96823911  0.21563919     0.03300
C930        C  0.65401750  0.99424786  0.19932168    -0.25500
H931        H  0.68779026  0.06182449  0.12427283     0.08400
H932        H  0.70647744  0.04338463  0.16516955     0.12000
H933        H  0.55865891  0.97879226  0.13564730     0.11900
H934        H  0.53870523  0.43890301  0.17488101     0.11600
H935        H  0.55749580  0.42686363  0.21827032     0.12200
H936        H  0.68617851  0.00995882  0.20621285     0.14100
C937        C  0.62590278  0.16982490  0.12851156    -0.05900
C938        C  0.66680217  0.20174710  0.13449553    -0.05800
C939        C  0.67719988  0.22689860  0.15796710    -0.24000
C940        C  0.64679549  0.22054560  0.17569305     0.18200
C941        C  0.60515950  0.19037637  0.16896474     0.15500
C942        C  0.59499782  0.16536577  0.14542030    -0.19000
C943        C  0.57458274  0.18444048  0.18640544    -0.20800
C944        C  0.58535953  0.20696067  0.21081959    -0.13400
C945        C  0.62688847  0.23542286  0.21826717     0.03300
C946        C  0.65743180  0.24274289  0.20037787    -0.25500
H947        H  0.69109239  0.20578512  0.12173330     0.08400
H948        H  0.70920141  0.25024622  0.16268091     0.12000
H949        H  0.56322421  0.14117666  0.14079467     0.11900
H950        H  0.54248212  0.16164701  0.18143732     0.11600
H951        H  0.56132062  0.20102520  0.22425121     0.12200
H952        H  0.68948183  0.26520901  0.20581387     0.14100
C953        C  0.73711089  0.17711662  0.41009282    -0.05900
C954        C  0.75020577  0.15633155  0.42648102    -0.05800
C955        C  0.73768205  0.14992893  0.45208930    -0.24000
C956        C  0.71083938  0.16312571  0.46150574     0.18200
C957        C  0.69792129  0.18471517  0.44535794     0.15500
C958        C  0.71193399  0.19243584  0.41989594    -0.19000
C959        C  0.66957645  0.19619852  0.45450268    -0.20800
C960        C  0.65232835  0.18407735  0.47869759    -0.13400
C961        C  0.66432932  0.16167155  0.99447723     0.03300
C962        C  0.69484761  0.15283652  0.48622378    -0.25500
H963        H  0.77005118  0.14478771  0.41940523     0.08400
H964        H  0.74783020  0.13333613  0.46421152     0.12000
H965        H  0.70155617  0.20833697  0.40729729     0.11900
H966        H  0.65931510  0.21277234  0.44245002     0.11600
H967        H  0.62882646  0.19122883  0.48480574     0.12200
H968        H  0.70380155  0.13506195  0.99815898     0.14100
C969        C  0.95110788  0.00392157  0.13320762    -0.05900
C970        C  0.96600482  0.98623094  0.15097164    -0.05800
C971        C  0.94747037  0.97339220  0.17474404    -0.24000
C972        C  0.91428923  0.47894329  0.18152209     0.18200
C973        C  0.89866485  0.49610783  0.16363539     0.15500
C974        C  0.91659440  0.00766071  0.13941141    -0.19000
C975        C  0.86653113  0.50315180  0.17074620    -0.20800
C976        C  0.85100922  0.49469340  0.19564601    -0.13400
C977        C  0.86649046  0.47796209  0.21366673     0.03300
C978        C  0.89752437  0.46918243  0.20624502    -0.25500
H979        H  0.99254162  0.98299004  0.14666660     0.08400
H980        H  0.95996349  0.96039210  0.18818206     0.12000
H981        H  0.90516587  0.52176457  0.12606421     0.11900
H982        H  0.85419179  0.51631987  0.15732886     0.11600
H983        H  0.82689020  0.50140743  0.20089748     0.12200
H984        H  0.90990825  0.45664913  0.22012533     0.14100
C985        C  0.48649050  0.49516897  0.49660652    -0.05900
C986        C  0.94570757  0.96171410  0.49276909    -0.05800
C987        C  0.93275911  0.43559364  0.46955189    -0.24000
C988        C  0.96044664  0.44213900  0.44980683     0.18200
C989        C  0.00198293  0.47445133  0.45397581     0.15500
C990        C  0.51464921  0.50079072  0.47720502    -0.19000
C991        C  0.03004492  0.48040230  0.43461618    -0.20800
C992        C  0.01702367  0.45499062  0.41118979    -0.13400
C993        C  0.97554944  0.42374086  0.40639761     0.03300
C994        C  0.94732029  0.41733789  0.42586876    -0.25500
H995        H  0.92332376  0.95665722  0.50730360     0.08400
H996        H  0.90089443  0.91074020  0.46685273     0.12000
H997        H  0.54628176  0.52622799  0.47991866     0.10900
H998        H  0.56203931  0.50489077  0.43751988     0.11600
H999        H  0.03925222  0.46045808  0.39646822     0.12200
H1000       H  0.91535488  0.39293252  0.42245445     0.14100
C1001       C  0.96217108  0.39834066  0.88098950     0.79600
N1002       N  0.98737586  0.38643431  0.86926685    -0.78700
C1003       C  0.97593645  0.36390423  0.84567874     0.82000
N1004       N  0.93915357  0.35374982  0.83354067    -0.78700
C1005       C  0.91372148  0.36562659  0.84501723     0.82100
N1006       N  0.92517604  0.38751271  0.86888679    -0.80400
C1007       C  0.85157440  0.47187685  0.74051732     0.79600
N1008       N  0.84716183  0.43888429  0.75348457    -0.78700
C1009       C  0.83289302  0.43346049  0.77806865     0.82000
N1010       N  0.82334201  0.46128442  0.78964671    -0.78700
C1011       C  0.82781484  0.49431996  0.77690578     0.82100
N1012       N  0.84155234  0.49927509  0.75228862    -0.80400
C1013       C  0.74872897  0.18131400  0.88259955     0.79600
N1014       N  0.75464514  0.15165453  0.86979807    -0.78700
C1015       C  0.76609967  0.15538985  0.84466256     0.82000
N1016       N  0.77258475  0.18968062  0.83245565    -0.78700
C1017       C  0.76692166  0.21965718  0.84514753     0.82100
N1018       N  0.75485746  0.21526614  0.87018449    -0.80400
O1019       O  0.82674498  0.36638544  0.77866273    -0.75100
O1020       O  0.79018115  0.26254581  0.80947278    -0.75100
O1021       O  0.75352856  0.29479004  0.77958077    -0.75200
O1022       O  0.86310167  0.33428766  0.80931271    -0.75200
O1023       O  0.84773141  0.36023358  0.84499706    -0.75100
O1024       O  0.73821363  0.31971311  0.81575489    -0.75100
O1025       O  0.77527915  0.28789205  0.84565133    -0.75100
O1026       O  0.81073275  0.39158433  0.81441775    -0.75200
Ni1027     Ni  0.80895354  0.31363587  0.79296346     1.25400
Ni1028     Ni  0.79250890  0.34080145  0.83148298     1.25400
C1029       C  0.82366346  0.39560992  0.79113969     0.87100
C1030       C  0.77747537  0.25835946  0.83274036     0.87000
C1031       C  0.72798747  0.30111096  0.79273722     0.87100
C1032       C  0.87306868  0.35306836  0.83237147     0.87200
C1033       C  0.63835088  0.25648229  0.74490370     0.79600
N1034       N  0.61134076  0.26400399  0.75812859    -0.78700
C1035       C  0.62156904  0.28336047  0.78264217     0.82000
N1036       N  0.65933235  0.29515978  0.79407542    -0.78700
C1037       C  0.68654863  0.28744263  0.78098986     0.82100
N1038       N  0.67595783  0.26842568  0.75638057    -0.80400
C1039       C  0.63443885  0.46467310  0.74284543     0.79600
N1040       N  0.60877796  0.43139056  0.75615652    -0.78700
C1041       C  0.61911853  0.42810599  0.78114290     0.82000
N1042       N  0.65548970  0.45856654  0.79288987    -0.78700
C1043       C  0.68122099  0.99225042  0.77976989     0.82100
N1044       N  0.67069620  0.99489621  0.75476184    -0.80400
C1045       C  0.95135651  0.16863613  0.88095856     0.79600
N1046       N  0.97994153  0.20437696  0.87062138    -0.78700
C1047       C  0.97297019  0.21254494  0.84591146     0.82000
N1048       N  0.93716307  0.18525261  0.83191912    -0.78700
C1049       C  0.90886882  0.14982226  0.84226839     0.82100
N1050       N  0.91637411  0.14200754  0.86653262    -0.80400
O1051       O  0.53377178  0.28073909  0.84802144    -0.75100
O1052       O  0.60182323  0.38554262  0.81761105    -0.75100
O1053       O  0.53436239  0.35450761  0.84730427    -0.75200
O1054       O  0.60208072  0.31271081  0.81857868    -0.75200
O1055       O  0.56086392  0.28868840  0.78222812    -0.75100
O1056       O  0.49293481  0.33009825  0.81105065    -0.75100
O1057       O  0.56005365  0.36099230  0.78150649    -0.75100
O1058       O  0.49321200  0.25734474  0.81139686    -0.75200
Ni1059     Ni  0.56944141  0.33418751  0.83424406     1.25400
Ni1060     Ni  0.52533185  0.30839011  0.79530775     1.25400
C1061       C  0.50178747  0.25201822  0.83465412     0.87100
C1062       C  0.59229427  0.39000527  0.79427113     0.87000
C1063       C  0.50244979  0.34900639  0.83403006     0.87100
C1064       C  0.59326284  0.29496273  0.79530377     0.87200
O1065       O  0.77139917  0.09381196  0.84424980    -0.75100
O1066       O  0.80336789  0.01840110  0.81255359    -0.75100
O1067       O  0.84216149  0.09170388  0.84224806    -0.75200
O1068       O  0.73213286  0.01942339  0.81469160    -0.75200
O1069       O  0.74714258  0.05367061  0.77836279    -0.75100
O1070       O  0.85816269  0.12761358  0.80660133    -0.75100
O1071       O  0.81923826  0.05371277  0.77664831    -0.75100
O1072       O  0.78637444  0.12842576  0.80808253    -0.75200
Ni1073     Ni  0.78669939  0.05467003  0.82970792     1.25400
Ni1074     Ni  0.80316208  0.09209630  0.79109328     1.25400
C1075       C  0.77460453  0.12414566  0.83160000     0.87100
C1076       C  0.81640292  0.02362671  0.78933014     0.87000
C1077       C  0.86806900  0.12165510  0.82939170     0.87100
C1078       C  0.72189409  0.02365517  0.79161792     0.87200
O1079       O  0.66058944  0.13807961  0.53688140    -0.81500
O1080       O  0.51231517  0.03450247  0.61041892    -0.66200
O1081       O  0.58757263  0.07533534  0.55623949    -1.12800
C1082       C  0.50761562  0.12558487  0.02213618     1.05400
O1083       O  0.95520581  0.02669546  0.59016887    -0.79400
O1084       O  0.97540725  0.01800579  0.53871792    -0.67000
Ni1085     Ni  0.64529460  0.10496055  0.56682429     1.34900
C1086       C  0.49867354  0.02643505  0.51941846     0.84100
O1087       O  0.57362847  0.02328274  0.59643094    -0.80000
O1088       O  0.63904328  0.07392283  0.59709857    -0.90200
C1089       C  0.97409078  0.02238686  0.60971087     0.83700
O1090       O  0.63980735  0.14623514  0.58773660    -0.68400
O1091       O  0.97823816  0.09135599  0.52932258    -0.87700
C1092       C  0.61593328  0.13793033  0.60666730     0.84500
C1093       C  0.61081968  0.03990646  0.60512629     1.06100
H1094       H  0.53368465  0.11066383  0.58331071     0.37900
O1095       O  0.52832485  0.08780118  0.57078122    -1.10400
O1096       O  0.53103704  0.06223530  0.51814943    -0.67000
Ni1097     Ni  0.56564513  0.10853038  0.54375093     1.26300
O1098       O  0.58453047  0.10178399  0.60854281    -0.67300
O1099       O  0.54365349  0.14160595  0.53242261    -0.79600
C1100       C  0.64153728  0.14265978  0.51768261     0.83900
O1101       O  0.60327212  0.12975483  0.51697298    -0.66700
Ni1102     Ni  0.97086474  0.05969905  0.55989134     1.27400
Ni1103     Ni  0.55036448  0.05492810  0.58367100     1.26100
H1104       H  0.58213685  0.05249668  0.54363086     0.38400
C1105       C  0.50107904  0.14454694  0.99914295    -0.05900
C1106       C  0.53382541  0.18126380  0.99025855    -0.05800
C1107       C  0.53041252  0.19477246  0.96585027    -0.24000
C1108       C  0.99432456  0.17163630  0.94975897     0.18200
C1109       C  0.96072484  0.13573502  0.95908194     0.15500
C1110       C  0.96407395  0.12280809  0.98373997    -0.19000
C1111       C  0.92476600  0.11216041  0.94317695    -0.20800
C1112       C  0.92229406  0.12330668  0.91803137    -0.13400
C1113       C  0.95561411  0.15856615  0.90810954     0.03300
C1114       C  0.99154755  0.18301846  0.92431597    -0.25500
H1115       H  0.56278977  0.19870200  0.00171118     0.08400
H1116       H  0.55649024  0.22247933  0.95921018     0.12000
H1117       H  0.93862411  0.09439212  0.99021468     0.11900
H1118       H  0.89871624  0.08459775  0.95000382     0.11600
H1119       H  0.89391647  0.10383306  0.90632414     0.12200
H1120       H  0.01740791  0.21026158  0.91706074     0.14100
C1121       C  0.62169046  0.02206802  0.62702004    -0.05900
C1122       C  0.66337779  0.03905365  0.63535617    -0.05800
C1123       C  0.67416454  0.02867884  0.65880628    -0.24000
C1124       C  0.64347474  0.00125908  0.67447847     0.18200
C1125       C  0.60155019  0.98195076  0.66563669     0.15500
C1126       C  0.59089446  0.99220211  0.64182058    -0.19000
C1127       C  0.57098540  0.45426814  0.68138734    -0.20800
C1128       C  0.58176130  0.44736366  0.70615742    -0.13400
C1129       C  0.62322477  0.96825801  0.71564306     0.03300
C1130       C  0.65401028  0.99425943  0.69932284    -0.25500
H1131       H  0.68778415  0.06181911  0.62426742     0.08400
H1132       H  0.70647026  0.04338158  0.66516562     0.12000
H1133       H  0.55865084  0.97881581  0.63565286     0.11900
H1134       H  0.53869490  0.43893931  0.67489204     0.11600
H1135       H  0.55748754  0.42689878  0.71828070     0.12200
H1136       H  0.68617225  0.00996320  0.70621117     0.14100
C1137       C  0.62589860  0.16982831  0.62851135    -0.05900
C1138       C  0.66679942  0.20174499  0.63449783    -0.05800
C1139       C  0.67719788  0.22689307  0.65797077    -0.24000
C1140       C  0.64679282  0.22054247  0.67569559     0.18200
C1141       C  0.60515575  0.19037907  0.66896507     0.15500
C1142       C  0.59499328  0.16537134  0.64541924    -0.19000
C1143       C  0.57457869  0.18444625  0.68640490    -0.20800
C1144       C  0.58535603  0.20696392  0.71082006    -0.13400
C1145       C  0.62688580  0.23542042  0.71826953     0.03300
C1146       C  0.65742953  0.24273692  0.70038127    -0.25500
H1147       H  0.69108993  0.20578073  0.62173650     0.08400
H1148       H  0.70920033  0.25023615  0.66268643     0.12000
H1149       H  0.56321875  0.14118607  0.64079174     0.11900
H1150       H  0.54247724  0.16165744  0.68143516     0.11600
H1151       H  0.56131664  0.20103141  0.72425071     0.12200
H1152       H  0.68948026  0.26519879  0.70581851     0.14100
C1153       C  0.73710745  0.17711226  0.91009005    -0.05900
C1154       C  0.75019995  0.15632221  0.92647569    -0.05800
C1155       C  0.73767714  0.14991679  0.95208398    -0.24000
C1156       C  0.71083789  0.16311604  0.96150325     0.18200
C1157       C  0.69792177  0.18471005  0.94535806     0.15500
C1158       C  0.71193333  0.19243312  0.91989585    -0.19000
C1159       C  0.66958020  0.19619597  0.95450568    -0.20800
C1160       C  0.65233362  0.18407337  0.97870082    -0.13400
C1161       C  0.66432578  0.16167964  0.49447656     0.03300
C1162       C  0.69484772  0.15282530  0.98622161    -0.25500
H1163       H  0.77004305  0.14477671  0.91939792     0.08400
H1164       H  0.74782361  0.13332034  0.96420407     0.12000
H1165       H  0.70155712  0.20833788  0.90729922     0.11900
H1166       H  0.65932026  0.21277318  0.94245513     0.11600
H1167       H  0.62883420  0.19122711  0.98481121     0.12200
H1168       H  0.70380309  0.13507650  0.49816313     0.14100
C1169       C  0.95111044  0.00392462  0.63320759    -0.05900
C1170       C  0.96602097  0.98625230  0.65097642    -0.05800
C1171       C  0.94749195  0.97341883  0.67475075    -0.24000
C1172       C  0.91430163  0.47895612  0.68152562     0.18200
C1173       C  0.89866342  0.49610192  0.66363431     0.15500
C1174       C  0.91658861  0.00765018  0.63940871    -0.19000
C1175       C  0.86651999  0.50313215  0.67074201    -0.20800
C1176       C  0.85100137  0.49467817  0.69564292    -0.13400
C1177       C  0.86649588  0.47796471  0.71366767     0.03300
C1178       C  0.89754038  0.46919937  0.70624963    -0.25500
H1179       H  0.99256466  0.98302247  0.64667386     0.08400
H1180       H  0.95999585  0.96043350  0.68819242     0.12000
H1181       H  0.90514950  0.52174027  0.62605789     0.11900
H1182       H  0.85417002  0.51628589  0.65732121     0.11600
H1183       H  0.82687415  0.50138099  0.70089200     0.12200
H1184       H  0.90993432  0.45668013  0.72013335     0.14100
C1185       C  0.48648949  0.49515975  0.99661096    -0.05900
C1186       C  0.94570332  0.96171195  0.99277066    -0.05800
C1187       C  0.93275407  0.43559351  0.96955252    -0.24000
C1188       C  0.96044389  0.44213414  0.94980964     0.18200
C1189       C  0.00198306  0.47443829  0.95398218     0.15500
C1190       C  0.51465028  0.50077526  0.97721228    -0.19000
C1191       C  0.03004711  0.48038484  0.93462488    -0.20800
C1192       C  0.01702516  0.45497747  0.91119696    -0.13400
C1193       C  0.97554851  0.42373621  0.90640103     0.03300
C1194       C  0.94731719  0.41733700  0.92587010    -0.25500
H1195       H  0.92331798  0.95666013  0.00730320     0.08400
H1196       H  0.90088707  0.91074609  0.96685083     0.12000
H1197       H  0.54628524  0.52620685  0.97992843     0.10900
H1198       H  0.56204358  0.50486711  0.93753142     0.11600
H1199       H  0.03925560  0.46044184  0.89647719     0.12200
H1200       H  0.91534982  0.39293791  0.92245303     0.14100
C1201       C  0.96217112  0.89834109  0.38098753     0.79600
N1202       N  0.98737473  0.88643189  0.36926600    -0.78700
C1203       C  0.97593339  0.86389791  0.34567905     0.82000
N1204       N  0.93915038  0.85374319  0.33354104    -0.78700
C1205       C  0.91371970  0.86562281  0.34501652     0.82100
N1206       N  0.92517582  0.88751231  0.36888491    -0.80400
C1207       C  0.85156740  0.97187164  0.24051629     0.79600
N1208       N  0.84715580  0.93887905  0.25348323    -0.78700
C1209       C  0.83288731  0.93345453  0.27806746     0.82000
N1210       N  0.82333516  0.96127739  0.28964588    -0.78700
C1211       C  0.82780669  0.99431267  0.27690529     0.82100
N1212       N  0.84154445  0.99926885  0.25228822    -0.80400
C1213       C  0.74873244  0.68131541  0.38260239     0.79600
N1214       N  0.75464740  0.65165439  0.36980175    -0.78700
C1215       C  0.76609960  0.65538710  0.34466561     0.82000
N1216       N  0.77258375  0.68967671  0.33245753    -0.78700
C1217       C  0.76692198  0.71965457  0.34514872     0.82100
N1218       N  0.75485989  0.71526600  0.37018604    -0.80400
O1219       O  0.82674220  0.86638056  0.27866205    -0.75100
O1220       O  0.79017950  0.76254140  0.30947286    -0.75100
O1221       O  0.75352648  0.79478541  0.27958071    -0.75200
O1222       O  0.86309965  0.83428328  0.30931221    -0.75200
O1223       O  0.84772979  0.86023004  0.34499635    -0.75100
O1224       O  0.73821149  0.81970848  0.31575482    -0.75100
O1225       O  0.77527816  0.78788850  0.34565132    -0.75100
O1226       O  0.81072985  0.89157949  0.31441699    -0.75200
Ni1227     Ni  0.80895141  0.81363124  0.29296318     1.25400
Ni1228     Ni  0.79250700  0.84079729  0.33148260     1.25400
C1229       C  0.82365984  0.89560472  0.29113876     0.87100
C1230       C  0.77747452  0.75835579  0.33274064     0.87000
C1231       C  0.72798562  0.80110688  0.29273700     0.87100
C1232       C  0.87306687  0.85306444  0.33237083     0.87200
C1233       C  0.63835286  0.75648465  0.24490120     0.79600
N1234       N  0.61134150  0.76400426  0.25812618    -0.78700
C1235       C  0.62156779  0.78335757  0.28264059     0.82000
N1236       N  0.65933035  0.79515569  0.29407462    -0.78700
C1237       C  0.68654769  0.78744029  0.28098895     0.82100
N1238       N  0.67595889  0.76842661  0.25637881    -0.80400
C1239       C  0.63444193  0.96465809  0.24284340     0.79600
N1240       N  0.60877948  0.93137715  0.25615505    -0.78700
C1241       C  0.61911547  0.92809690  0.28114345     0.82000
N1242       N  0.65548384  0.95856002  0.29289198    -0.78700
C1243       C  0.68121633  0.49224266  0.27977151     0.82100
N1244       N  0.67069608  0.49488420  0.25476146    -0.80400
C1245       C  0.95135744  0.66861988  0.38095262     0.79600
N1246       N  0.97994107  0.70436252  0.37061660    -0.78700
C1247       C  0.97296747  0.71253357  0.34590811     0.82000
N1248       N  0.93715913  0.68524293  0.33191634    -0.78700
C1249       C  0.90886610  0.64981118  0.34226485     0.82100
N1250       N  0.91637397  0.64199313  0.36652733    -0.80400
O1251       O  0.53376731  0.78072887  0.34802007    -0.75100
O1252       O  0.60181841  0.88553442  0.31761199    -0.75100
O1253       O  0.53435746  0.85449789  0.34730500    -0.75200
O1254       O  0.60207681  0.81270333  0.31857805    -0.75200
O1255       O  0.56086072  0.78868228  0.28222717    -0.75100
O1256       O  0.49293030  0.83008987  0.31105120    -0.75100
O1257       O  0.56004927  0.86098511  0.28150719    -0.75100
O1258       O  0.49320804  0.75733613  0.31139525    -0.75200
Ni1259     Ni  0.56943672  0.83417846  0.33424404     1.25400
Ni1260     Ni  0.52532771  0.80838252  0.29530746     1.25400
C1261       C  0.50178365  0.75200826  0.33465208     0.87100
C1262       C  0.59229001  0.88999736  0.29427202     0.87000
C1263       C  0.50244543  0.84899787  0.33403073     0.87100
C1264       C  0.59325992  0.79495701  0.29530270     0.87200
O1265       O  0.77139669  0.59380730  0.34425249    -0.75100
O1266       O  0.80336028  0.51839336  0.31255383    -0.75100
O1267       O  0.84215750  0.59169630  0.34224742    -0.75200
O1268       O  0.73212659  0.51941803  0.31469435    -0.75200
O1269       O  0.74713551  0.55366456  0.27836525    -0.75100
O1270       O  0.85815668  0.62760587  0.30660063    -0.75100
O1271       O  0.81922970  0.55370518  0.27664861    -0.75100
O1272       O  0.78636965  0.62841992  0.30808479    -0.75200
Ni1273     Ni  0.78669426  0.55466373  0.32970928     1.25400
Ni1274     Ni  0.80315525  0.59208952  0.29109444     1.25400
C1275       C  0.77460197  0.62414110  0.33160280     0.87100
C1276       C  0.81639460  0.52361897  0.28933017     0.87000
C1277       C  0.86806459  0.62164650  0.32939018     0.87100
C1278       C  0.72188770  0.52364911  0.29162051     0.87200
O1279       O  0.66059405  0.63807315  0.03688281    -0.81500
O1280       O  0.51231612  0.53449761  0.11042114    -0.66200
O1281       O  0.58757627  0.57532786  0.05624177    -1.12800
C1282       C  0.50760757  0.62558849  0.52213739     1.05400
O1283       O  0.95520974  0.52669819  0.09017071    -0.79400
O1284       O  0.97540782  0.51800163  0.03872086    -0.67000
Ni1285     Ni  0.64529869  0.60495324  0.06682563     1.34900
C1286       C  0.49867437  0.52642737  0.01942183     0.84100
O1287       O  0.57363131  0.52327729  0.09643498    -0.80000
O1288       O  0.63904730  0.57391496  0.09709948    -0.90200
C1289       C  0.97409214  0.52238544  0.10971241     0.83700
O1290       O  0.63981280  0.64622846  0.08773832    -0.68400
O1291       O  0.97824470  0.59135384  0.02932188    -0.87700
C1292       C  0.61593836  0.63792506  0.10666874     0.84500
C1293       C  0.61082371  0.53989940  0.10512814     1.06100
H1294       H  0.53369175  0.61066139  0.08331112     0.37900
O1295       O  0.52833023  0.58779742  0.07078227    -1.10400
O1296       O  0.53103968  0.56222595  0.01815193    -0.67000
Ni1297     Ni  0.56565005  0.60852286  0.04375151     1.26300
O1298       O  0.58453494  0.60177918  0.10854470    -0.67300
O1299       O  0.54366120  0.64159989  0.03242139    -0.79600
C1300       C  0.64154132  0.64265060  0.01768317     0.83900
O1301       O  0.60327570  0.62974272  0.01697277    -0.66700
Ni1302     Ni  0.97087005  0.55969914  0.05989231     1.27400
Ni1303     Ni  0.55036780  0.55492279  0.08367354     1.26100
H1304       H  0.58213994  0.55248828  0.04363377     0.38400
C1305       C  0.50106926  0.64454759  0.49914355    -0.05900
C1306       C  0.53381122  0.68127024  0.49026192    -0.05800
C1307       C  0.53039954  0.69477542  0.46585216    -0.24000
C1308       C  0.99431778  0.67162936  0.44975667     0.18200
C1309       C  0.96072227  0.63572137  0.45907669     0.15500
C1310       C  0.96406938  0.62279868  0.48373631    -0.19000
C1311       C  0.92477027  0.61213604  0.44316740    -0.20800
C1312       C  0.92230055  0.62327974  0.41802089    -0.13400
C1313       C  0.95561571  0.65854763  0.40810262     0.03300
C1314       C  0.99154285  0.68300893  0.42431270    -0.25500
H1315       H  0.56277168  0.69871571  0.50171789     0.08400
H1316       H  0.55647393  0.72248738  0.45921425     0.12000
H1317       H  0.93862328  0.59437779  0.49020877     0.11900
H1318       H  0.89872420  0.58456762  0.44999187     0.11600
H1319       H  0.89392808  0.60379820  0.40631053     0.12200
H1320       H  0.01739936  0.71025838  0.41706010     0.14100
C1321       C  0.62169708  0.52205969  0.12702022    -0.05900
C1322       C  0.66338460  0.53905206  0.13535865    -0.05800
C1323       C  0.67417210  0.52867578  0.15880796    -0.24000
C1324       C  0.64348288  0.50124729  0.17447693     0.18200
C1325       C  0.60155907  0.48193090  0.16563198     0.15500
C1326       C  0.59090260  0.49218434  0.14181687    -0.19000
C1327       C  0.57099498  0.95423889  0.18137905    -0.20800
C1328       C  0.58176982  0.94733506  0.20614956    -0.13400
C1329       C  0.62323155  0.46823906  0.21563918     0.03300
C1330       C  0.65401751  0.49424779  0.19932166    -0.25500
H1331       H  0.68779024  0.56182442  0.12427280     0.08400
H1332       H  0.70647743  0.54338455  0.16516951     0.12000
H1333       H  0.55865889  0.47879224  0.13564731     0.11900
H1334       H  0.53870523  0.93890302  0.17488101     0.11600
H1335       H  0.55749578  0.92686365  0.21827032     0.12200
H1336       H  0.68617852  0.50995873  0.20621282     0.14100
C1337       C  0.62590286  0.66982489  0.12851157    -0.05900
C1338       C  0.66680228  0.70174700  0.13449559    -0.05800
C1339       C  0.67719998  0.72689848  0.15796717    -0.24000
C1340       C  0.64679556  0.72054555  0.17569308     0.18200
C1341       C  0.60515956  0.69037639  0.16896473     0.15500
C1342       C  0.59499788  0.66536582  0.14542028    -0.19000
C1343       C  0.57458278  0.68444056  0.18640541    -0.20800
C1344       C  0.58535955  0.70696073  0.21081956    -0.13400
C1345       C  0.62688850  0.73542286  0.21826718     0.03300
C1346       C  0.65743186  0.74274283  0.20037790    -0.25500
H1347       H  0.69109251  0.70578496  0.12173339     0.08400
H1348       H  0.70920152  0.75024604  0.16268101     0.12000
H1349       H  0.56322426  0.64117677  0.14079462     0.11900
H1350       H  0.54248215  0.66164715  0.18143726     0.11600
H1351       H  0.56132062  0.70102530  0.22425116     0.12200
H1352       H  0.68948189  0.76520889  0.20581393     0.14100
C1353       C  0.73711087  0.67711663  0.41009281    -0.05900
C1354       C  0.75020573  0.65633153  0.42648102    -0.05800
C1355       C  0.73768199  0.64992889  0.45208928    -0.24000
C1356       C  0.71083933  0.66312569  0.46150573     0.18200
C1357       C  0.69792129  0.68471519  0.44535793     0.15500
C1358       C  0.71193399  0.69243587  0.41989595    -0.19000
C1359       C  0.66957647  0.69619858  0.45450269    -0.20800
C1360       C  0.65232836  0.68407740  0.47869759    -0.13400
C1361       C  0.66432932  0.66167153  0.99447722     0.03300
C1362       C  0.69484755  0.65283649  0.48622376    -0.25500
H1363       H  0.77005112  0.64478768  0.41940522     0.08400
H1364       H  0.74783011  0.63333606  0.46421150     0.12000
H1365       H  0.70155620  0.70833703  0.40729730     0.11900
H1366       H  0.65931516  0.71277244  0.44245004     0.11600
H1367       H  0.62882649  0.69122891  0.48480576     0.12200
H1368       H  0.70380154  0.63506191  0.99815897     0.14100
C1369       C  0.95110788  0.50392148  0.13320761    -0.05900
C1370       C  0.96600483  0.48623086  0.15097163    -0.05800
C1371       C  0.94747040  0.47339216  0.17474405    -0.24000
C1372       C  0.91428918  0.97894331  0.18152207     0.18200
C1373       C  0.89866481  0.99610785  0.16363539     0.15500
C1374       C  0.91659441  0.50766065  0.13941141    -0.19000
C1375       C  0.86653107  0.00315179  0.17074618    -0.20800
C1376       C  0.85100915  0.99469337  0.19564599    -0.13400
C1377       C  0.86649039  0.97796206  0.21366671     0.03300
C1378       C  0.89752431  0.96918242  0.20624500    -0.25500
H1379       H  0.99254161  0.48298995  0.14666660     0.08400
H1380       H  0.95996352  0.46039206  0.18818207     0.12000
H1381       H  0.90516586  0.02176463  0.12606422     0.11900
H1382       H  0.85419173  0.01631987  0.15732885     0.11600
H1383       H  0.82689012  0.00140739  0.20089746     0.12200
H1384       H  0.90990819  0.95664911  0.22012531     0.14100
C1385       C  0.48649055  0.99516898  0.49660655    -0.05900
C1386       C  0.94570755  0.46171416  0.49276909    -0.05800
C1387       C  0.93275913  0.93559359  0.46955189    -0.24000
C1388       C  0.96044667  0.94213896  0.44980683     0.18200
C1389       C  0.00198295  0.97445129  0.45397581     0.15500
C1390       C  0.51464925  0.00079075  0.47720505    -0.19000
C1391       C  0.03004495  0.98040226  0.43461618    -0.20800
C1392       C  0.01702369  0.95499058  0.41118979    -0.13400
C1393       C  0.97554946  0.92374083  0.40639761     0.03300
C1394       C  0.94732032  0.91733786  0.42586875    -0.25500
H1395       H  0.92332374  0.45665728  0.50730360     0.08400
H1396       H  0.90089440  0.41074025  0.46685273     0.12000
H1397       H  0.54628180  0.02622802  0.47991868     0.10900
H1398       H  0.56203933  0.00489082  0.43751988     0.11600
H1399       H  0.03925225  0.96045803  0.39646822     0.12200
H1400       H  0.91535490  0.89293249  0.42245445     0.14100
C1401       C  0.96217105  0.89834058  0.88098957     0.79600
N1402       N  0.98737585  0.88643426  0.86926691    -0.78700
C1403       C  0.97593645  0.86390420  0.84567879     0.82000
N1404       N  0.93915357  0.85374980  0.83354072    -0.78700
C1405       C  0.91372146  0.86562654  0.84501729     0.82100
N1406       N  0.92517601  0.88751263  0.86888685    -0.80400
C1407       C  0.85157444  0.97187688  0.74051735     0.79600
N1408       N  0.84716187  0.93888432  0.75348461    -0.78700
C1409       C  0.83289305  0.93346053  0.77806869     0.82000
N1410       N  0.82334202  0.96128445  0.78964674    -0.78700
C1411       C  0.82781484  0.99431998  0.77690580     0.82100
N1412       N  0.84155236  0.99927511  0.75228865    -0.80400
C1413       C  0.74872897  0.68131396  0.88259955     0.79600
N1414       N  0.75464515  0.65165451  0.86979806    -0.78700
C1415       C  0.76609969  0.65538984  0.84466255     0.82000
N1416       N  0.77258476  0.68968062  0.83245565    -0.78700
C1417       C  0.76692166  0.71965717  0.84514753     0.82100
N1418       N  0.75485746  0.71526611  0.87018449    -0.80400
O1419       O  0.82674502  0.86638548  0.77866277    -0.75100
O1420       O  0.79018115  0.76254582  0.80947279    -0.75100
O1421       O  0.75352860  0.79479008  0.77958077    -0.75200
O1422       O  0.86310168  0.83428766  0.80931275    -0.75200
O1423       O  0.84773140  0.86023357  0.84499710    -0.75100
O1424       O  0.73821363  0.81971313  0.81575489    -0.75100
O1425       O  0.77527913  0.78789204  0.84565134    -0.75100
O1426       O  0.81073277  0.89158435  0.81441778    -0.75200
Ni1427     Ni  0.80895357  0.81363590  0.79296348     1.25400
Ni1428     Ni  0.79250889  0.84080145  0.83148300     1.25400
C1429       C  0.82366349  0.89560995  0.79113973     0.87100
C1430       C  0.77747536  0.75835946  0.83274037     0.87000
C1431       C  0.72798750  0.80111099  0.79273721     0.87100
C1432       C  0.87306868  0.85306834  0.83237151     0.87200
C1433       C  0.63835088  0.75648226  0.74490369     0.79600
N1434       N  0.61134076  0.76400395  0.75812859    -0.78700
C1435       C  0.62156904  0.78336045  0.78264216     0.82000
N1436       N  0.65933235  0.79515978  0.79407540    -0.78700
C1437       C  0.68654864  0.78744264  0.78098985     0.82100
N1438       N  0.67595785  0.76842568  0.75638056    -0.80400
C1439       C  0.63443885  0.96467312  0.74284546     0.79600
N1440       N  0.60877796  0.93139056  0.75615654    -0.78700
C1441       C  0.61911854  0.92810598  0.78114292     0.82000
N1442       N  0.65548970  0.95856653  0.79288990    -0.78700
C1443       C  0.68122099  0.49225042  0.77976986     0.82100
N1444       N  0.67069621  0.49489620  0.75476180    -0.80400
C1445       C  0.95135650  0.66863609  0.88095856     0.79600
N1446       N  0.97994152  0.70437693  0.87062139    -0.78700
C1447       C  0.97297020  0.71254492  0.84591147     0.82000
N1448       N  0.93716307  0.68525259  0.83191912    -0.78700
C1449       C  0.90886882  0.64982224  0.84226839     0.82100
N1450       N  0.91637410  0.64200751  0.86653262    -0.80400
O1451       O  0.53377178  0.78073904  0.84802143    -0.75100
O1452       O  0.60182323  0.88554259  0.81761106    -0.75100
O1453       O  0.53436239  0.85450757  0.84730427    -0.75200
O1454       O  0.60208072  0.81271077  0.81857868    -0.75200
O1455       O  0.56086391  0.78868836  0.78222812    -0.75100
O1456       O  0.49293482  0.83009823  0.81105065    -0.75100
O1457       O  0.56005366  0.86099228  0.78150649    -0.75100
O1458       O  0.49321199  0.75734471  0.81139685    -0.75200
Ni1459     Ni  0.56944141  0.83418746  0.83424406     1.25400
Ni1460     Ni  0.52533185  0.80839008  0.79530775     1.25400
C1461       C  0.50178746  0.75201817  0.83465411     0.87100
C1462       C  0.59229428  0.89000524  0.79427114     0.87000
C1463       C  0.50244980  0.84900636  0.83403007     0.87100
C1464       C  0.59326283  0.79496269  0.79530376     0.87200
O1465       O  0.77139917  0.59381195  0.84424978    -0.75100
O1466       O  0.80336788  0.51840107  0.81255357    -0.75100
O1467       O  0.84216148  0.59170385  0.84224804    -0.75200
O1468       O  0.73213285  0.51942339  0.81469157    -0.75200
O1469       O  0.74714259  0.55367060  0.77836277    -0.75100
O1470       O  0.85816270  0.62761356  0.80660132    -0.75100
O1471       O  0.81923827  0.55371276  0.77664830    -0.75100
O1472       O  0.78637445  0.62842575  0.80808251    -0.75200
Ni1473     Ni  0.78669939  0.55467002  0.82970790     1.25400
Ni1474     Ni  0.80316209  0.59209629  0.79109326     1.25400
C1475       C  0.77460454  0.62414566  0.83159998     0.87100
C1476       C  0.81640292  0.52362669  0.78933012     0.87000
C1477       C  0.86806901  0.62165508  0.82939169     0.87100
C1478       C  0.72189410  0.52365517  0.79161790     0.87200
O1479       O  0.66058939  0.63807959  0.53688139    -0.81500
O1480       O  0.51231513  0.53450239  0.61041888    -0.66200
O1481       O  0.58757259  0.57533531  0.55623946    -1.12800
C1482       C  0.50761565  0.62558491  0.02213618     1.05400
O1483       O  0.95520583  0.52669561  0.59016886    -0.79400
O1484       O  0.97540724  0.51800589  0.53871792    -0.67000
Ni1485     Ni  0.64529456  0.60496050  0.56682426     1.34900
C1486       C  0.49867349  0.52643503  0.51941843     0.84100
O1487       O  0.57362842  0.52328266  0.59643088    -0.80000
O1488       O  0.63904324  0.57392275  0.59709852    -0.90200
C1489       C  0.97409077  0.52238695  0.60971085     0.83700
O1490       O  0.63980731  0.64623508  0.58773659    -0.68400
O1491       O  0.97823824  0.59135612  0.52932257    -0.87700
C1492       C  0.61593324  0.63793025  0.60666729     0.84500
C1493       C  0.61081963  0.53990637  0.60512624     1.06100
H1494       H  0.53368462  0.61066378  0.58331070     0.37900
O1495       O  0.52832481  0.58780113  0.57078120    -1.10400
O1496       O  0.53103699  0.56223528  0.51814940    -0.67000
Ni1497     Ni  0.56564509  0.60853035  0.54375091     1.26300
O1498       O  0.58453042  0.60178391  0.60854279    -0.67300
O1499       O  0.54365344  0.64160591  0.53242261    -0.79600
C1500       C  0.64153724  0.64265977  0.51768260     0.83900
O1501       O  0.60327208  0.62975482  0.51697296    -0.66700
Ni1502     Ni  0.97086479  0.55969918  0.55989133     1.27400
Ni1503     Ni  0.55036445  0.55492803  0.58367096     1.26100
H1504       H  0.58213681  0.55249663  0.54363081     0.38400
C1505       C  0.50107908  0.64454697  0.99914294    -0.05900
C1506       C  0.53382547  0.68126377  0.99025851    -0.05800
C1507       C  0.53041258  0.69477241  0.96585023    -0.24000
C1508       C  0.99432450  0.67163623  0.94975898     0.18200
C1509       C  0.96072481  0.63573490  0.95908192     0.15500
C1510       C  0.96407392  0.62280796  0.98373995    -0.19000
C1511       C  0.92476601  0.61216025  0.94317691    -0.20800
C1512       C  0.92229407  0.62330655  0.91803133    -0.13400
C1513       C  0.95561410  0.65856607  0.90810953     0.03300
C1514       C  0.99154750  0.68301842  0.92431599    -0.25500
H1515       H  0.56278985  0.69870196  0.00171112     0.08400
H1516       H  0.55649031  0.72247925  0.95921011     0.12000
H1517       H  0.93862410  0.59439195  0.99021463     0.11900
H1518       H  0.89871626  0.58459755  0.95000375     0.11600
H1519       H  0.89391651  0.60383290  0.90632409     0.12200
H1520       H  0.01740784  0.71026159  0.91706078     0.14100
C1521       C  0.62169040  0.52206794  0.62701999    -0.05900
C1522       C  0.66337773  0.53905355  0.63535611    -0.05800
C1523       C  0.67416449  0.52867876  0.65880623    -0.24000
C1524       C  0.64347469  0.50125902  0.67447843     0.18200
C1525       C  0.60155014  0.48195072  0.66563666     0.15500
C1526       C  0.59089440  0.49220205  0.64182054    -0.19000
C1527       C  0.57098544  0.95426817  0.68138736    -0.20800
C1528       C  0.58176132  0.94736370  0.70615744    -0.13400
C1529       C  0.62322475  0.46825798  0.71564303     0.03300
C1530       C  0.65401025  0.49425940  0.69932280    -0.25500
H1531       H  0.68778409  0.56181898  0.62426735     0.08400
H1532       H  0.70647021  0.54338149  0.66516556     0.12000
H1533       H  0.55865078  0.47881577  0.63565283     0.11900
H1534       H  0.53869495  0.93893935  0.67489206     0.11600
H1535       H  0.55748755  0.92689882  0.71828072     0.12200
H1536       H  0.68617223  0.50996317  0.70621112     0.14100
C1537       C  0.62589856  0.66982822  0.62851134    -0.05900
C1538       C  0.66679939  0.70174489  0.63449783    -0.05800
C1539       C  0.67719786  0.72689297  0.65797077    -0.24000
C1540       C  0.64679280  0.72054240  0.67569558     0.18200
C1541       C  0.60515572  0.69037902  0.66896506     0.15500
C1542       C  0.59499325  0.66537128  0.64541923    -0.19000
C1543       C  0.57457867  0.68444624  0.68640488    -0.20800
C1544       C  0.58535602  0.70696392  0.71082005    -0.13400
C1545       C  0.62688579  0.73542038  0.71826952     0.03300
C1546       C  0.65742952  0.74273686  0.70038126    -0.25500
H1547       H  0.69108990  0.70578061  0.62173651     0.08400
H1548       H  0.70920032  0.75023604  0.66268643     0.12000
H1549       H  0.56321871  0.64118603  0.64079173     0.11900
H1550       H  0.54247721  0.66165745  0.68143514     0.11600
H1551       H  0.56131663  0.70103143  0.72425069     0.12200
H1552       H  0.68948026  0.76519871  0.70581850     0.14100
C1553       C  0.73710743  0.67711219  0.91009003    -0.05900
C1554       C  0.75019992  0.65632214  0.92647568    -0.05800
C1555       C  0.73767712  0.64991672  0.95208397    -0.24000
C1556       C  0.71083786  0.66311598  0.96150324     0.18200
C1557       C  0.69792174  0.68470998  0.94535804     0.15500
C1558       C  0.71193330  0.69243305  0.91989584    -0.19000
C1559       C  0.66958019  0.69619591  0.95450567    -0.20800
C1560       C  0.65233362  0.68407334  0.97870081    -0.13400
C1561       C  0.66432575  0.66167965  0.49447656     0.03300
C1562       C  0.69484771  0.65282525  0.98622160    -0.25500
H1563       H  0.77004303  0.64477665  0.91939791     0.08400
H1564       H  0.74782359  0.63332027  0.96420406     0.12000
H1565       H  0.70155709  0.70833781  0.90729921     0.11900
H1566       H  0.65932025  0.71277312  0.94245511     0.11600
H1567       H  0.62883421  0.69122709  0.98481121     0.12200
H1568       H  0.70380300  0.63507643  0.49816310     0.14100
C1569       C  0.95111041  0.50392467  0.63320756    -0.05900
C1570       C  0.96602095  0.48625235  0.65097639    -0.05800
C1571       C  0.94749191  0.47341883  0.67475071    -0.24000
C1572       C  0.91430169  0.97895614  0.68152566     0.18200
C1573       C  0.89866348  0.99610194  0.66363435     0.15500
C1574       C  0.91658856  0.50765020  0.63940868    -0.19000
C1575       C  0.86652006  0.00313218  0.67074205    -0.20800
C1576       C  0.85100144  0.99467822  0.69564296    -0.13400
C1577       C  0.86649593  0.97796475  0.71366771     0.03300
C1578       C  0.89754044  0.96919940  0.70624968    -0.25500
H1579       H  0.99256465  0.48302253  0.64667383     0.08400
H1580       H  0.95999581  0.46043351  0.68819237     0.12000
H1581       H  0.90514955  0.02174025  0.62605791     0.11900
H1582       H  0.85417010  0.01628592  0.65732124     0.11600
H1583       H  0.82687423  0.00138103  0.70089203     0.12200
H1584       H  0.90993437  0.95668016  0.72013340     0.14100
C1585       C  0.48648951  0.99515974  0.99661096    -0.05900
C1586       C  0.94570333  0.46171202  0.99277059    -0.05800
C1587       C  0.93275406  0.93559341  0.96955260    -0.24000
C1588       C  0.96044386  0.94213407  0.94980970     0.18200
C1589       C  0.00198299  0.97443830  0.95398220     0.15500
C1590       C  0.51465029  0.00077529  0.97721226    -0.19000
C1591       C  0.03004703  0.98038490  0.93462489    -0.20800
C1592       C  0.01702509  0.95497749  0.91119699    -0.13400
C1593       C  0.97554847  0.92373614  0.90640109     0.03300
C1594       C  0.94731716  0.91733689  0.92587018    -0.25500
H1595       H  0.92331798  0.45666023  0.00730311     0.08400
H1596       H  0.90088706  0.41074625  0.96685071     0.12000
H1597       H  0.54628524  0.02620691  0.97992840     0.10900
H1598       H  0.56204357  0.00486722  0.93753137     0.11600
H1599       H  0.03925552  0.96044190  0.89647720     0.12200
H1600       H  0.91534981  0.89293774  0.92245313     0.14100
loop_ 
_geom_bond_atom_site_label_1 
_geom_bond_atom_site_label_2 
_geom_bond_distance 
_geom_bond_site_symmetry_2 
_ccdc_geom_bond_type 
C1            N2   1.359       .  A
C1            N6   1.360       .  A
C1          C193   1.481       .  S
N2            C3   1.359       .  A
C3            N4   1.360       .  A
C3          C863   1.474       .  S
N4            C5   1.361       .  A
C5            N6   1.362       .  A
C5           C32   1.475       .  S
C7            N8   1.362       .  A
C7           N12   1.359       .  A
C7          C177   1.480       .  S
N8            C9   1.362       .  A
C9           N10   1.357       .  A
C9           C29   1.470       .  S
N10          C11   1.356       .  A
C11          N12   1.357       .  A
C11         C476   1.468       .  S
C13          N14   1.359       .  A
C13          N18   1.358       .  A
C13         C153   1.474       .  S
N14          C15   1.357       .  A
C15          N16   1.360       .  A
C15          C75   1.473       .  S
N16          C17   1.361       .  A
C17          N18   1.358       .  A
C17          C30   1.470       .  S
O19         Ni27   1.917       .  S
O19          C29   1.280       .  A
O20         Ni27   1.914       .  S
O20          C30   1.280       .  A
O21         Ni27   1.927       .  S
O21          C31   1.284       .  A
O22         Ni27   1.928       .  S
O22          C32   1.284       .  A
O23         Ni28   1.918       .  S
O23          C32   1.281       .  A
O24         Ni28   1.918       .  S
O24          C31   1.280       .  A
O25         Ni28   1.922       .  S
O25          C30   1.283       .  A
O26         Ni28   1.921       .  S
O26          C29   1.283       .  A
Ni27        Ni28   2.389       .  S
C31          C37   1.474       .  S
C33          N34   1.357       .  A
C33          N38   1.358       .  A
C33         C145   1.475       .  S
N34          C35   1.357       .  A
C35          N36   1.363       .  A
C35          C64   1.474       .  S
N36          C37   1.364       .  A
C37          N38   1.357       .  A
C39          N40   1.358       .  A
C39         N444   1.358       .  A
C39         C529   1.480       .  S
N40          C41   1.360       .  A
C41          N42   1.360       .  A
C41          C62   1.473       .  S
N42         C443   1.362       .  A
C43          N44   1.356       .  A
C43         N442   1.362       .  A
C43          C78   1.470   1_565  S
N44         C439   1.358       .  A
C45          N46   1.365       .  A
C45          N50   1.352       .  A
C45         C113   1.486       .  S
N46          C47   1.368       .  A
C47          N48   1.365       .  A
C47         C861   1.476       .  S
N48          C49   1.355       .  A
C49          N50   1.348       .  A
C49          C77   1.467       .  S
O51         Ni59   1.937       .  S
O51          C61   1.285       .  A
O52         Ni59   1.932       .  S
O52          C62   1.284       .  A
O53         Ni59   1.922       .  S
O53          C63   1.282       .  A
O54         Ni59   1.922       .  S
O54          C64   1.281       .  A
O55         Ni60   1.921       .  S
O55          C64   1.283       .  A
O56         Ni60   1.922   1_655  S
O56          C63   1.282   1_655  A
O57         Ni60   1.909       .  S
O57          C62   1.279       .  A
O58         Ni60   1.908   1_655  S
O58          C61   1.279   1_655  A
Ni59        Ni60   2.389       .  S
C61         C847   1.476   1_455  S
C63         C803   1.474   1_455  S
O65         Ni73   1.923       .  S
O65          C75   1.283       .  A
O66         Ni73   1.918       .  S
O66          C76   1.282       .  A
O67         Ni73   1.902       .  S
O67          C77   1.280       .  A
O68         Ni73   1.908       .  S
O68          C78   1.278       .  A
O69         Ni74   1.928       .  S
O69          C78   1.285       .  A
O70         Ni74   1.929       .  S
O70          C77   1.282       .  A
O71         Ni74   1.916       .  S
O71          C76   1.281       .  A
O72         Ni74   1.919       .  S
O72          C75   1.281       .  A
Ni73        Ni74   2.390       .  S
C76         C411   1.468   1_545  S
O79         Ni85   1.931       .  S
O79         C100   1.272       .  A
O80        Ni103   1.895       .  S
O80         C889   1.268   1_455  A
O81         Ni85   1.922       .  S
O81        Ni103   1.904       .  S
O81         Ni97   1.915       .  S
O81         H104   0.966       .  S
C82         C105   1.481       .  S
C82         O299   1.262       .  A
C82        O1091   1.276   1_455  A
O83        Ni102   1.943       .  S
O83          C89   1.278       .  A
O84        Ni102   1.913       .  S
O84         C886   1.276       .  A
Ni85         O88   1.930       .  S
Ni85         O90   1.911       .  S
C86         C785   1.487   1_544  S
C86          O96   1.281   1_655  A
C86         O884   1.276       .  A
O87        Ni103   1.908       .  S
O87          C93   1.268       .  A
O88          C93   1.272       .  A
C89         C169   1.483       .  S
C89         O880   1.268       .  A
O90          C92   1.274       .  A
O91        Ni102   1.950       .  S
O91        C1082   1.276       .  A
C92         C137   1.476       .  S
C92          O98   1.277       .  A
C93         C121   1.481       .  S
H94          O95   0.965       .  S
O95        Ni103   1.915       .  S
O95         Ni97   1.892       .  S
O95        Ni902   1.919   1_455  S
O96         Ni97   1.949       .  S
Ni97        O101   1.889       .  S
Ni97         O99   1.892       .  S
O98        Ni103   1.934       .  S
O99         C282   1.262       .  A
C100        C161   1.473   1_554  S
C100        O101   1.263       .  A
Ni102       O895   1.919       .  S
C105        C106   1.409       .  A
C105        C910   1.402   1_455  A
C106        C107   1.399       .  A
C106        H115   1.083       .  S
C107        C908   1.401   1_455  A
C107        H116   1.083       .  S
C108        C114   1.410       .  A
C108        C109   1.415       .  A
C108        C907   1.401       .  A
C109        C111   1.395       .  A
C109        C110   1.401       .  A
C110        C905   1.402       .  A
C110        H117   1.084       .  S
C111        C112   1.390       .  A
C111        H118   1.084       .  S
C112        C113   1.412       .  A
C112        H119   1.083       .  S
C113        C114   1.406       .  A
C114        H120   1.084       .  S
C121        C122   1.407       .  A
C121        C126   1.408   1_545  A
C122        C123   1.394       .  A
C122        H131   1.083       .  S
C123        C124   1.399       .  A
C123        H132   1.084       .  S
C124        C130   1.401   1_545  A
C124        C125   1.414   1_545  A
C125        C126   1.406       .  A
C125        C527   1.403       .  A
C126        H133   1.084       .  S
C127        C128   1.399       .  A
C127        C525   1.403       .  A
C127        H134   1.084       .  S
C128        C529   1.406       .  A
C128        H135   1.083       .  S
C129        C439   1.480       .  S
C129        C130   1.405       .  A
C129        C528   1.406       .  A
C130        H136   1.084   1_565  S
C137        C138   1.405       .  A
C137        C142   1.406       .  A
C138        C139   1.398       .  A
C138        H147   1.083       .  S
C139        C140   1.403       .  A
C139        H148   1.084       .  S
C140        C146   1.403       .  A
C140        C141   1.413       .  A
C141        C143   1.401       .  A
C141        C142   1.400       .  A
C142        H149   1.085       .  S
C143        C144   1.395       .  A
C143        H150   1.084       .  S
C144        C145   1.404       .  A
C144        H151   1.083       .  S
C145        C146   1.406       .  A
C146        H152   1.084       .  S
C153        C154   1.404       .  A
C153        C158   1.406       .  A
C154        C155   1.393       .  A
C154        H163   1.083       .  S
C155        C156   1.400       .  A
C155        H164   1.084       .  S
C156        C162   1.400       .  A
C156        C157   1.415       .  A
C157        C159   1.403       .  A
C157        C158   1.405       .  A
C158        H165   1.084       .  S
C159        C160   1.399       .  A
C159        H166   1.084       .  S
C160        C361   1.406       .  A
C160        H167   1.083       .  S
C161        C360   1.406       .  A
C161        C362   1.402       .  A
C162        C361   1.402       .  A
C162        H368   1.085       .  S
H168        C362   1.085       .  S
C169        C170   1.407   1_545  A
C169        C174   1.406       .  A
C170        C171   1.399       .  A
C170        H179   1.083       .  S
C171        C572   1.402       .  A
C171        H180   1.084       .  S
C172        C178   1.408       .  A
C172        C173   1.415       .  A
C172        C571   1.402       .  A
C173        C175   1.401       .  A
C173        C574   1.406       .  A
C174        C573   1.406   1_545  A
C174        H581   1.084       .  S
C175        C176   1.397       .  A
C175        H182   1.084       .  S
C176        C177   1.405       .  A
C176        H183   1.083       .  S
C177        C178   1.406       .  A
C178        H184   1.084       .  S
H181        C574   1.084       .  S
C185        C686   1.487       .  S
C185        C190   1.408   1_655  A
C185       C1386   1.407       .  A
C186       C1385   1.407       .  A
C186        C587   1.401       .  A
C186        H195   1.083       .  S
C187        C188   1.404       .  A
C187        C586   1.401       .  A
C187        H596   1.083       .  S
C188        C194   1.409       .  A
C188        C189   1.414       .  A
C189        C191   1.402       .  A
C189        C990   1.405       .  A
C190        C989   1.405       .  A
C190        H197   1.084       .  S
C191        C192   1.397       .  A
C191        H998   1.084       .  S
C192        C193   1.404       .  A
C192        H199   1.083       .  S
C193        C194   1.408       .  A
C194        H200   1.084       .  S
H196        C587   1.083       .  S
H198        C991   1.084       .  S
C201        N202   1.359       .  A
C201        N206   1.360       .  A
C201        C393   1.481       .  S
N202        C203   1.359       .  A
C203        N204   1.360       .  A
C203       C1063   1.474       .  S
N204        C205   1.361       .  A
C205        N206   1.362       .  A
C205        C232   1.475       .  S
C207        N208   1.362       .  A
C207        N212   1.359       .  A
C207        C377   1.480       .  S
N208        C209   1.362       .  A
C209        N210   1.357       .  A
C209        C229   1.470       .  S
N210        C211   1.356       .  A
C211        N212   1.357       .  A
C211        C676   1.468       .  S
C213        N214   1.359       .  A
C213        N218   1.358       .  A
C213        C353   1.474       .  S
N214        C215   1.357       .  A
C215        N216   1.360       .  A
C215        C275   1.473       .  S
N216        C217   1.361       .  A
C217        N218   1.358       .  A
C217        C230   1.470       .  S
O219       Ni227   1.917       .  S
O219        C229   1.280       .  A
O220       Ni227   1.914       .  S
O220        C230   1.280       .  A
O221       Ni227   1.927       .  S
O221        C231   1.284       .  A
O222       Ni227   1.928       .  S
O222        C232   1.284       .  A
O223       Ni228   1.918       .  S
O223        C232   1.281       .  A
O224       Ni228   1.918       .  S
O224        C231   1.280       .  A
O225       Ni228   1.922       .  S
O225        C230   1.283       .  A
O226       Ni228   1.921       .  S
O226        C229   1.283       .  A
Ni227      Ni228   2.389       .  S
C231        C237   1.474       .  S
C233        N234   1.357       .  A
C233        N238   1.358       .  A
C233        C345   1.475       .  S
N234        C235   1.357       .  A
C235        N236   1.363       .  A
C235        C264   1.474       .  S
N236        C237   1.364       .  A
C237        N238   1.357       .  A
C239        N240   1.358       .  A
C239        N644   1.358       .  A
C239        C729   1.480       .  S
N240        C241   1.360       .  A
C241        N242   1.360       .  A
C241        C262   1.473       .  S
N242        C643   1.362       .  A
C243        N642   1.362       .  A
C243        N244   1.356       .  A
C243        C278   1.470   1_565  S
N244        C639   1.358       .  A
C245        N246   1.365       .  A
C245        N250   1.352       .  A
C245        C313   1.486       .  S
N246        C247   1.368       .  A
C247        N248   1.365       .  A
C247       C1061   1.476       .  S
N248        C249   1.355       .  A
C249        N250   1.348       .  A
C249        C277   1.467       .  S
O251       Ni259   1.937       .  S
O251        C261   1.285       .  A
O252       Ni259   1.932       .  S
O252        C262   1.284       .  A
O253       Ni259   1.922       .  S
O253        C263   1.282       .  A
O254       Ni259   1.922       .  S
O254        C264   1.281       .  A
O255       Ni260   1.921       .  S
O255        C264   1.283       .  A
O256       Ni260   1.922   1_655  S
O256        C263   1.282   1_655  A
O257       Ni260   1.909       .  S
O257        C262   1.279       .  A
O258       Ni260   1.908   1_655  S
O258        C261   1.279   1_655  A
Ni259      Ni260   2.389       .  S
C261       C1047   1.476   1_455  S
C263       C1003   1.474   1_455  S
O265       Ni273   1.923       .  S
O265        C275   1.283       .  A
O266       Ni273   1.918       .  S
O266        C276   1.282       .  A
O267       Ni273   1.902       .  S
O267        C277   1.280       .  A
O268       Ni273   1.908       .  S
O268        C278   1.278       .  A
O269       Ni274   1.928       .  S
O269        C278   1.285       .  A
O270       Ni274   1.929       .  S
O270        C277   1.282       .  A
O271       Ni274   1.916       .  S
O271        C276   1.281       .  A
O272       Ni274   1.919       .  S
O272        C275   1.281       .  A
Ni273      Ni274   2.390       .  S
C276        C611   1.468   1_545  S
O279       Ni285   1.931       .  S
O279        C300   1.272       .  A
O280       Ni303   1.895       .  S
O280       C1089   1.268   1_455  A
O281       Ni285   1.922       .  S
O281       Ni303   1.904       .  S
O281       Ni297   1.915       .  S
O281        H304   0.966       .  S
C282        C305   1.481   1_554  S
C282        O891   1.276   1_455  A
O283       Ni302   1.943       .  S
O283        C289   1.278       .  A
O284       Ni302   1.913       .  S
O284       C1086   1.276       .  A
Ni285       O288   1.930       .  S
Ni285       O290   1.911       .  S
C286        C585   1.487   1_545  S
C286       O1084   1.276       .  A
C286        O296   1.281   1_655  A
O287       Ni303   1.908       .  S
O287        C293   1.268       .  A
O288        C293   1.272       .  A
C289        C369   1.483       .  S
C289       O1080   1.268       .  A
O290        C292   1.274       .  A
O291       Ni302   1.950       .  S
O291        C882   1.276       .  A
C292        C337   1.476       .  S
C292        O298   1.277       .  A
C293        C321   1.481       .  S
H294        O295   0.965       .  S
O295       Ni303   1.915       .  S
O295       Ni297   1.892       .  S
O295      Ni1102   1.919   1_455  S
O296       Ni297   1.949       .  S
Ni297       O301   1.889       .  S
Ni297       O299   1.892       .  S
O298       Ni303   1.934       .  S
C300        C361   1.473       .  S
C300        O301   1.263       .  A
Ni302      O1095   1.919       .  S
C305        C306   1.409       .  A
C305       C1110   1.402   1_455  A
C306        C307   1.399       .  A
C306        H315   1.083   1_556  S
C307       C1108   1.401   1_455  A
C307        H316   1.083       .  S
C308       C1107   1.401       .  A
C308        C314   1.410       .  A
C308        C309   1.415       .  A
C309        C311   1.395       .  A
C309        C310   1.401       .  A
C310       C1105   1.402       .  A
C310        H317   1.084       .  S
C311        C312   1.390       .  A
C311        H318   1.084       .  S
C312        C313   1.412       .  A
C312        H319   1.083       .  S
C313        C314   1.406       .  A
C314        H320   1.084       .  S
C321        C322   1.407       .  A
C321        C326   1.408   1_545  A
C322        C323   1.394       .  A
C322        H331   1.083       .  S
C323        C324   1.399       .  A
C323        H332   1.084       .  S
C324        C330   1.401   1_545  A
C324        C325   1.414   1_545  A
C325        C727   1.403       .  A
C325        C326   1.406       .  A
C326        H333   1.084       .  S
C327        C725   1.403       .  A
C327        C328   1.399       .  A
C327        H334   1.084       .  S
C328        C729   1.406       .  A
C328        H335   1.083       .  S
C329        C639   1.480       .  S
C329        C728   1.406       .  A
C329        C330   1.405       .  A
C330        H336   1.084   1_565  S
C337        C338   1.405       .  A
C337        C342   1.406       .  A
C338        C339   1.398       .  A
C338        H347   1.083       .  S
C339        C340   1.403       .  A
C339        H348   1.084       .  S
C340        C346   1.403       .  A
C340        C341   1.413       .  A
C341        C343   1.401       .  A
C341        C342   1.400       .  A
C342        H349   1.085       .  S
C343        C344   1.395       .  A
C343        H350   1.084       .  S
C344        C345   1.404       .  A
C344        H351   1.083       .  S
C345        C346   1.406       .  A
C346        H352   1.084       .  S
C353        C354   1.404       .  A
C353        C358   1.406       .  A
C354        C355   1.393       .  A
C354        H363   1.083       .  S
C355        C356   1.400       .  A
C355        H364   1.084       .  S
C356        C362   1.400       .  A
C356        C357   1.415       .  A
C357        C359   1.403       .  A
C357        C358   1.405       .  A
C358        H365   1.084       .  S
C359        C360   1.399       .  A
C359        H366   1.084       .  S
C360        H367   1.083       .  S
C369        C370   1.407   1_545  A
C369        C374   1.406       .  A
C370        C371   1.399       .  A
C370        H379   1.083       .  S
C371        C772   1.402       .  A
C371        H380   1.084       .  S
C372        C771   1.402       .  A
C372        C378   1.408       .  A
C372        C373   1.415       .  A
C373        C375   1.401       .  A
C373        C774   1.406       .  A
C374        C773   1.406   1_545  A
C374        H781   1.084       .  S
C375        C376   1.397       .  A
C375        H382   1.084       .  S
C376        C377   1.405       .  A
C376        H383   1.083       .  S
C377        C378   1.406       .  A
C378        H384   1.084       .  S
H381        C774   1.084       .  S
C385        C486   1.487   1_556  S
C385       C1586   1.407       .  A
C385        C390   1.408   1_655  A
C386       C1585   1.407       .  A
C386        C787   1.401       .  A
C386        H395   1.083   1_556  S
C387        C786   1.401       .  A
C387        C388   1.404       .  A
C387        H796   1.083       .  S
C388        C394   1.409       .  A
C388        C389   1.414       .  A
C389        C391   1.402       .  A
C389       C1190   1.405       .  A
C390       C1189   1.405       .  A
C390        H397   1.084       .  S
C391        C392   1.397       .  A
C391       H1198   1.084       .  S
C392        C393   1.404       .  A
C392        H399   1.083       .  S
C393        C394   1.408       .  A
C394        H400   1.084       .  S
H396        C787   1.083       .  S
H398       C1191   1.084       .  S
C401        N402   1.359       .  A
C401        N406   1.360       .  A
C401        C593   1.481       .  S
N402        C403   1.359       .  A
C403        N404   1.360       .  A
C403       C1263   1.474       .  S
N404        C405   1.361       .  A
C405        N406   1.362       .  A
C405        C432   1.475       .  S
C407        N408   1.362       .  A
C407        N412   1.359       .  A
C407        C577   1.480       .  S
N408        C409   1.362       .  A
C409        N410   1.357       .  A
C409        C429   1.470       .  S
N410        C411   1.356       .  A
C411        N412   1.357       .  A
C413        N414   1.359       .  A
C413        N418   1.358       .  A
C413        C553   1.474       .  S
N414        C415   1.357       .  A
C415        N416   1.360       .  A
C415        C475   1.473       .  S
N416        C417   1.361       .  A
C417        N418   1.358       .  A
C417        C430   1.470       .  S
O419       Ni427   1.917       .  S
O419        C429   1.280       .  A
O420       Ni427   1.914       .  S
O420        C430   1.280       .  A
O421       Ni427   1.927       .  S
O421        C431   1.284       .  A
O422       Ni427   1.928       .  S
O422        C432   1.284       .  A
O423       Ni428   1.918       .  S
O423        C432   1.281       .  A
O424       Ni428   1.918       .  S
O424        C431   1.280       .  A
O425       Ni428   1.922       .  S
O425        C430   1.283       .  A
O426       Ni428   1.921       .  S
O426        C429   1.283       .  A
Ni427      Ni428   2.389       .  S
C431        C437   1.474       .  S
C433        N434   1.357       .  A
C433        N438   1.358       .  A
C433        C545   1.475       .  S
N434        C435   1.357       .  A
C435        N436   1.363       .  A
C435        C464   1.474       .  S
N436        C437   1.364       .  A
C437        N438   1.357       .  A
C439        N440   1.358       .  A
N440        C441   1.360       .  A
C441        N442   1.360       .  A
C441        C462   1.473       .  S
C443        N444   1.356       .  A
C443        C478   1.470       .  S
C445        N446   1.365       .  A
C445        N450   1.352       .  A
C445        C513   1.486       .  S
N446        C447   1.368       .  A
C447        N448   1.365       .  A
C447       C1261   1.476       .  S
N448        C449   1.355       .  A
C449        N450   1.348       .  A
C449        C477   1.467       .  S
O451       Ni459   1.937       .  S
O451        C461   1.285       .  A
O452       Ni459   1.932       .  S
O452        C462   1.284       .  A
O453       Ni459   1.922       .  S
O453        C463   1.282       .  A
O454       Ni459   1.922       .  S
O454        C464   1.281       .  A
O455       Ni460   1.921       .  S
O455        C464   1.283       .  A
O456       Ni460   1.922   1_655  S
O456        C463   1.282   1_655  A
O457       Ni460   1.909       .  S
O457        C462   1.279       .  A
O458       Ni460   1.908   1_655  S
O458        C461   1.279   1_655  A
Ni459      Ni460   2.389       .  S
C461       C1247   1.476   1_455  S
C463       C1203   1.474   1_455  S
O465       Ni473   1.923       .  S
O465        C475   1.283       .  A
O466       Ni473   1.918       .  S
O466        C476   1.282       .  A
O467       Ni473   1.902       .  S
O467        C477   1.280       .  A
O468       Ni473   1.908       .  S
O468        C478   1.278       .  A
O469       Ni474   1.928       .  S
O469        C478   1.285       .  A
O470       Ni474   1.929       .  S
O470        C477   1.282       .  A
O471       Ni474   1.916       .  S
O471        C476   1.281       .  A
O472       Ni474   1.919       .  S
O472        C475   1.281       .  A
Ni473      Ni474   2.390       .  S
O479       Ni485   1.931       .  S
O479        C500   1.272       .  A
O480       Ni503   1.895       .  S
O480       C1289   1.268   1_455  A
O481       Ni485   1.922       .  S
O481       Ni503   1.904       .  S
O481       Ni497   1.915       .  S
O481        H504   0.966       .  S
C482        C505   1.481       .  S
C482        O699   1.262       .  A
C482       O1491   1.276   1_455  A
O483       Ni502   1.943       .  S
O483        C489   1.278       .  A
O484       Ni502   1.913       .  S
O484       C1286   1.276       .  A
Ni485       O488   1.930       .  S
Ni485       O490   1.911       .  S
C486       O1284   1.276       .  A
C486        O496   1.281   1_655  A
O487       Ni503   1.908       .  S
O487        C493   1.268       .  A
O488        C493   1.272       .  A
C489        C569   1.483       .  S
C489       O1280   1.268       .  A
O490        C492   1.274       .  A
O491       Ni502   1.950       .  S
O491       C1482   1.276       .  A
C492        C537   1.476       .  S
C492        O498   1.277       .  A
C493        C521   1.481       .  S
H494        O495   0.965       .  S
O495       Ni503   1.915       .  S
O495       Ni497   1.892       .  S
O495      Ni1302   1.919   1_455  S
O496       Ni497   1.949       .  S
Ni497       O501   1.889       .  S
Ni497       O499   1.892       .  S
O498       Ni503   1.934       .  S
O499        C682   1.262       .  A
C500        C561   1.473   1_554  S
C500        O501   1.263       .  A
Ni502      O1295   1.919       .  S
C505        C506   1.409       .  A
C505       C1310   1.402   1_455  A
C506        C507   1.399       .  A
C506        H515   1.083       .  S
C507       C1308   1.401   1_455  A
C507        H516   1.083       .  S
C508       C1307   1.401       .  A
C508        C514   1.410       .  A
C508        C509   1.415       .  A
C509        C511   1.395       .  A
C509        C510   1.401       .  A
C510       C1305   1.402       .  A
C510        H517   1.084       .  S
C511        C512   1.390       .  A
C511        H518   1.084       .  S
C512        C513   1.412       .  A
C512        H519   1.083       .  S
C513        C514   1.406       .  A
C514        H520   1.084       .  S
C521        C522   1.407       .  A
C521        C526   1.408       .  A
C522        C523   1.394       .  A
C522        H531   1.083       .  S
C523        C524   1.399       .  A
C523        H532   1.084       .  S
C524        C530   1.401       .  A
C524        C525   1.414       .  A
C525        C526   1.406       .  A
C526        H533   1.084       .  S
C527        C528   1.399       .  A
C527        H534   1.084       .  S
C528        H535   1.083       .  S
C529        C530   1.405       .  A
C530        H536   1.084       .  S
C537        C538   1.405       .  A
C537        C542   1.406       .  A
C538        C539   1.398       .  A
C538        H547   1.083       .  S
C539        C540   1.403       .  A
C539        H548   1.084       .  S
C540        C546   1.403       .  A
C540        C541   1.413       .  A
C541        C543   1.401       .  A
C541        C542   1.400       .  A
C542        H549   1.085       .  S
C543        C544   1.395       .  A
C543        H550   1.084       .  S
C544        C545   1.404       .  A
C544        H551   1.083       .  S
C545        C546   1.406       .  A
C546        H552   1.084       .  S
C553        C554   1.404       .  A
C553        C558   1.406       .  A
C554        C555   1.393       .  A
C554        H563   1.083       .  S
C555        C556   1.400       .  A
C555        H564   1.084       .  S
C556        C562   1.400       .  A
C556        C557   1.415       .  A
C557        C559   1.403       .  A
C557        C558   1.405       .  A
C558        H565   1.084       .  S
C559        C560   1.399       .  A
C559        H566   1.084       .  S
C560        C761   1.406       .  A
C560        H567   1.083       .  S
C561        C760   1.406       .  A
C561        C762   1.402       .  A
C562        C761   1.402       .  A
C562        H768   1.085       .  S
H568        C762   1.085       .  S
C569        C570   1.407       .  A
C569        C574   1.406       .  A
C570        C571   1.399       .  A
C570        H579   1.083       .  S
C571        H580   1.084       .  S
C572        C578   1.408       .  A
C572        C573   1.415       .  A
C573        C575   1.401   1_565  A
C575        C576   1.397   1_545  A
C575        H582   1.084       .  S
C576        C577   1.405       .  A
C576        H583   1.083   1_565  S
C577        C578   1.406       .  A
C578        H584   1.084       .  S
C585        C986   1.407       .  A
C585        C590   1.408   1_665  A
C586        C985   1.407       .  A
C586        H595   1.083       .  S
C587        C588   1.404       .  A
C588        C594   1.409       .  A
C588        C589   1.414       .  A
C589        C591   1.402       .  A
C589       C1390   1.405   1_565  A
C590       C1389   1.405   1_545  A
C590        H597   1.084       .  S
C591        C592   1.397       .  A
C591       H1398   1.084   1_565  S
C592        C593   1.404       .  A
C592        H599   1.083       .  S
C593        C594   1.408       .  A
C594        H600   1.084       .  S
H598       C1391   1.084   1_545  S
C601        N602   1.359       .  A
C601        N606   1.360       .  A
C601        C793   1.481       .  S
N602        C603   1.359       .  A
C603        N604   1.360       .  A
C603       C1463   1.474       .  S
N604        C605   1.361       .  A
C605        N606   1.362       .  A
C605        C632   1.475       .  S
C607        N608   1.362       .  A
C607        N612   1.359       .  A
C607        C777   1.480       .  S
N608        C609   1.362       .  A
C609        N610   1.357       .  A
C609        C629   1.470       .  S
N610        C611   1.356       .  A
C611        N612   1.357       .  A
C613        N614   1.359       .  A
C613        N618   1.358       .  A
C613        C753   1.474       .  S
N614        C615   1.357       .  A
C615        N616   1.360       .  A
C615        C675   1.473       .  S
N616        C617   1.361       .  A
C617        N618   1.358       .  A
C617        C630   1.470       .  S
O619       Ni627   1.917       .  S
O619        C629   1.280       .  A
O620       Ni627   1.914       .  S
O620        C630   1.280       .  A
O621       Ni627   1.927       .  S
O621        C631   1.284       .  A
O622       Ni627   1.928       .  S
O622        C632   1.284       .  A
O623       Ni628   1.918       .  S
O623        C632   1.281       .  A
O624       Ni628   1.918       .  S
O624        C631   1.280       .  A
O625       Ni628   1.922       .  S
O625        C630   1.283       .  A
O626       Ni628   1.921       .  S
O626        C629   1.283       .  A
Ni627      Ni628   2.389       .  S
C631        C637   1.474       .  S
C633        N634   1.357       .  A
C633        N638   1.358       .  A
C633        C745   1.475       .  S
N634        C635   1.357       .  A
C635        N636   1.363       .  A
C635        C664   1.474       .  S
N636        C637   1.364       .  A
C637        N638   1.357       .  A
C639        N640   1.358       .  A
N640        C641   1.360       .  A
C641        N642   1.360       .  A
C641        C662   1.473       .  S
C643        N644   1.356       .  A
C643        C678   1.470       .  S
C645        N646   1.365       .  A
C645        N650   1.352       .  A
C645        C713   1.486       .  S
N646        C647   1.368       .  A
C647        N648   1.365       .  A
C647       C1461   1.476       .  S
N648        C649   1.355       .  A
C649        N650   1.348       .  A
C649        C677   1.467       .  S
O651       Ni659   1.937       .  S
O651        C661   1.285       .  A
O652       Ni659   1.932       .  S
O652        C662   1.284       .  A
O653       Ni659   1.922       .  S
O653        C663   1.282       .  A
O654       Ni659   1.922       .  S
O654        C664   1.281       .  A
O655       Ni660   1.921       .  S
O655        C664   1.283       .  A
O656       Ni660   1.922   1_655  S
O656        C663   1.282   1_655  A
O657       Ni660   1.909       .  S
O657        C662   1.279       .  A
O658       Ni660   1.908   1_655  S
O658        C661   1.279   1_655  A
Ni659      Ni660   2.389       .  S
C661       C1447   1.476   1_455  S
C663       C1403   1.474   1_455  S
O665       Ni673   1.923       .  S
O665        C675   1.283       .  A
O666       Ni673   1.918       .  S
O666        C676   1.282       .  A
O667       Ni673   1.902       .  S
O667        C677   1.280       .  A
O668       Ni673   1.908       .  S
O668        C678   1.278       .  A
O669       Ni674   1.928       .  S
O669        C678   1.285       .  A
O670       Ni674   1.929       .  S
O670        C677   1.282       .  A
O671       Ni674   1.916       .  S
O671        C676   1.281       .  A
O672       Ni674   1.919       .  S
O672        C675   1.281       .  A
Ni673      Ni674   2.390       .  S
O679       Ni685   1.931       .  S
O679        C700   1.272       .  A
O680       Ni703   1.895       .  S
O680       C1489   1.268   1_455  A
O681       Ni685   1.922       .  S
O681       Ni703   1.904       .  S
O681       Ni697   1.915       .  S
O681        H704   0.966       .  S
C682        C705   1.481   1_554  S
C682       O1291   1.276   1_455  A
O683       Ni702   1.943       .  S
O683        C689   1.278       .  A
O684       Ni702   1.913       .  S
O684       C1486   1.276       .  A
Ni685       O688   1.930       .  S
Ni685       O690   1.911       .  S
C686       O1484   1.276       .  A
C686        O696   1.281   1_655  A
O687       Ni703   1.908       .  S
O687        C693   1.268       .  A
O688        C693   1.272       .  A
C689        C769   1.483       .  S
C689       O1480   1.268       .  A
O690        C692   1.274       .  A
O691       Ni702   1.950       .  S
O691       C1282   1.276       .  A
C692        C737   1.476       .  S
C692        O698   1.277       .  A
C693        C721   1.481       .  S
H694        O695   0.965       .  S
O695       Ni703   1.915       .  S
O695       Ni697   1.892       .  S
O695      Ni1502   1.919   1_455  S
O696       Ni697   1.949       .  S
Ni697       O701   1.889       .  S
Ni697       O699   1.892       .  S
O698       Ni703   1.934       .  S
C700        C761   1.473       .  S
C700        O701   1.263       .  A
Ni702      O1495   1.919       .  S
C705        C706   1.409       .  A
C705       C1510   1.402   1_455  A
C706        C707   1.399       .  A
C706        H715   1.083   1_556  S
C707       C1508   1.401   1_455  A
C707        H716   1.083       .  S
C708       C1507   1.401       .  A
C708        C714   1.410       .  A
C708        C709   1.415       .  A
C709        C711   1.395       .  A
C709        C710   1.401       .  A
C710       C1505   1.402       .  A
C710        H717   1.084       .  S
C711        C712   1.390       .  A
C711        H718   1.084       .  S
C712        C713   1.412       .  A
C712        H719   1.083       .  S
C713        C714   1.406       .  A
C714        H720   1.084       .  S
C721        C722   1.407       .  A
C721        C726   1.408       .  A
C722        C723   1.394       .  A
C722        H731   1.083       .  S
C723        C724   1.399       .  A
C723        H732   1.084       .  S
C724        C730   1.401       .  A
C724        C725   1.414       .  A
C725        C726   1.406       .  A
C726        H733   1.084       .  S
C727        C728   1.399       .  A
C727        H734   1.084       .  S
C728        H735   1.083       .  S
C729        C730   1.405       .  A
C730        H736   1.084       .  S
C737        C738   1.405       .  A
C737        C742   1.406       .  A
C738        C739   1.398       .  A
C738        H747   1.083       .  S
C739        C740   1.403       .  A
C739        H748   1.084       .  S
C740        C746   1.403       .  A
C740        C741   1.413       .  A
C741        C743   1.401       .  A
C741        C742   1.400       .  A
C742        H749   1.085       .  S
C743        C744   1.395       .  A
C743        H750   1.084       .  S
C744        C745   1.404       .  A
C744        H751   1.083       .  S
C745        C746   1.406       .  A
C746        H752   1.084       .  S
C753        C754   1.404       .  A
C753        C758   1.406       .  A
C754        C755   1.393       .  A
C754        H763   1.083       .  S
C755        C756   1.400       .  A
C755        H764   1.084       .  S
C756        C762   1.400       .  A
C756        C757   1.415       .  A
C757        C759   1.403       .  A
C757        C758   1.405       .  A
C758        H765   1.084       .  S
C759        C760   1.399       .  A
C759        H766   1.084       .  S
C760        H767   1.083       .  S
C769        C770   1.407       .  A
C769        C774   1.406       .  A
C770        C771   1.399       .  A
C770        H779   1.083       .  S
C771        H780   1.084       .  S
C772        C778   1.408       .  A
C772        C773   1.415       .  A
C773        C775   1.401   1_565  A
C775        C776   1.397   1_545  A
C775        H782   1.084       .  S
C776        C777   1.405       .  A
C776        H783   1.083   1_565  S
C777        C778   1.406       .  A
C778        H784   1.084       .  S
C785       C1186   1.407       .  A
C785        C790   1.408   1_665  A
C786       C1185   1.407       .  A
C786        H795   1.083   1_556  S
C787        C788   1.404       .  A
C788        C794   1.409       .  A
C788        C789   1.414       .  A
C789        C791   1.402       .  A
C789       C1590   1.405   1_565  A
C790       C1589   1.405   1_545  A
C790        H797   1.084       .  S
C791        C792   1.397       .  A
C791       H1598   1.084   1_565  S
C792        C793   1.404       .  A
C792        H799   1.083       .  S
C793        C794   1.408       .  A
C794        H800   1.084       .  S
H798       C1591   1.084   1_545  S
C801        N802   1.359       .  A
C801        N806   1.360       .  A
C801        C993   1.481       .  S
N802        C803   1.359       .  A
C803        N804   1.360       .  A
N804        C805   1.361       .  A
C805        N806   1.362       .  A
C805        C832   1.475       .  S
C807        N808   1.362       .  A
C807        N812   1.359       .  A
C807        C977   1.480       .  S
N808        C809   1.362       .  A
C809        N810   1.357       .  A
C809        C829   1.470       .  S
N810        C811   1.356       .  A
C811        N812   1.357       .  A
C811       C1276   1.468       .  S
C813        N814   1.359       .  A
C813        N818   1.358       .  A
C813        C953   1.474       .  S
N814        C815   1.357       .  A
C815        N816   1.360       .  A
C815        C875   1.473       .  S
N816        C817   1.361       .  A
C817        N818   1.358       .  A
C817        C830   1.470       .  S
O819       Ni827   1.917       .  S
O819        C829   1.280       .  A
O820       Ni827   1.914       .  S
O820        C830   1.280       .  A
O821       Ni827   1.927       .  S
O821        C831   1.284       .  A
O822       Ni827   1.928       .  S
O822        C832   1.284       .  A
O823       Ni828   1.918       .  S
O823        C832   1.281       .  A
O824       Ni828   1.918       .  S
O824        C831   1.280       .  A
O825       Ni828   1.922       .  S
O825        C830   1.283       .  A
O826       Ni828   1.921       .  S
O826        C829   1.283       .  A
Ni827      Ni828   2.389       .  S
C831        C837   1.474       .  S
C833        N834   1.357       .  A
C833        N838   1.358       .  A
C833        C945   1.475       .  S
N834        C835   1.357       .  A
C835        N836   1.363       .  A
C835        C864   1.474       .  S
N836        C837   1.364       .  A
C837        N838   1.357       .  A
C839        N840   1.358       .  A
C839       N1244   1.358       .  A
C839       C1329   1.480       .  S
N840        C841   1.360       .  A
C841        N842   1.360       .  A
C841        C862   1.473       .  S
N842       C1243   1.362       .  A
C843       N1242   1.362       .  A
C843        N844   1.356       .  A
C843        C878   1.470   1_565  S
N844       C1239   1.358       .  A
C845        N846   1.365       .  A
C845        N850   1.352       .  A
C845        C913   1.486       .  S
N846        C847   1.368       .  A
C847        N848   1.365       .  A
N848        C849   1.355       .  A
C849        N850   1.348       .  A
C849        C877   1.467       .  S
O851       Ni859   1.937       .  S
O851        C861   1.285       .  A
O852       Ni859   1.932       .  S
O852        C862   1.284       .  A
O853       Ni859   1.922       .  S
O853        C863   1.282       .  A
O854       Ni859   1.922       .  S
O854        C864   1.281       .  A
O855       Ni860   1.921       .  S
O855        C864   1.283       .  A
O856       Ni860   1.922       .  S
O856        C863   1.282       .  A
O857       Ni860   1.909       .  S
O857        C862   1.279       .  A
O858       Ni860   1.908       .  S
O858        C861   1.279       .  A
Ni859      Ni860   2.389       .  S
O865       Ni873   1.923       .  S
O865        C875   1.283       .  A
O866       Ni873   1.918       .  S
O866        C876   1.282       .  A
O867       Ni873   1.902       .  S
O867        C877   1.280       .  A
O868       Ni873   1.908       .  S
O868        C878   1.278       .  A
O869       Ni874   1.928       .  S
O869        C878   1.285       .  A
O870       Ni874   1.929       .  S
O870        C877   1.282       .  A
O871       Ni874   1.916       .  S
O871        C876   1.281       .  A
O872       Ni874   1.919       .  S
O872        C875   1.281       .  A
Ni873      Ni874   2.390       .  S
C876       C1211   1.468   1_545  S
O879       Ni885   1.931       .  S
O879        C900   1.272       .  A
O880       Ni903   1.895       .  S
O881       Ni885   1.922       .  S
O881       Ni903   1.904       .  S
O881       Ni897   1.915       .  S
O881        H904   0.966       .  S
C882        C905   1.481       .  S
C882       O1099   1.262       .  A
O883       Ni902   1.943       .  S
O883        C889   1.278       .  A
O884       Ni902   1.913       .  S
Ni885       O888   1.930       .  S
Ni885       O890   1.911       .  S
C886       C1585   1.487   1_544  S
C886        O896   1.281       .  A
O887       Ni903   1.908       .  S
O887        C893   1.268       .  A
O888        C893   1.272       .  A
C889        C969   1.483       .  S
O890        C892   1.274       .  A
O891       Ni902   1.950       .  S
C892        C937   1.476       .  S
C892        O898   1.277       .  A
C893        C921   1.481       .  S
H894        O895   0.965       .  S
O895       Ni903   1.915       .  S
O895       Ni897   1.892       .  S
O896       Ni897   1.949       .  S
Ni897       O901   1.889       .  S
Ni897       O899   1.892       .  S
O898       Ni903   1.934       .  S
O899       C1082   1.262       .  A
C900        C961   1.473   1_554  S
C900        O901   1.263       .  A
C905        C906   1.409       .  A
C906        C907   1.399       .  A
C906        H915   1.083       .  S
C907        H916   1.083       .  S
C908        C914   1.410       .  A
C908        C909   1.415       .  A
C909        C911   1.395       .  A
C909        C910   1.401       .  A
C910        H917   1.084       .  S
C911        C912   1.390       .  A
C911        H918   1.084       .  S
C912        C913   1.412       .  A
C912        H919   1.083       .  S
C913        C914   1.406       .  A
C914        H920   1.084   1_655  S
C921        C922   1.407       .  A
C921        C926   1.408   1_545  A
C922        C923   1.394       .  A
C922        H931   1.083       .  S
C923        C924   1.399       .  A
C923        H932   1.084       .  S
C924        C930   1.401   1_545  A
C924        C925   1.414   1_545  A
C925       C1327   1.403       .  A
C925        C926   1.406       .  A
C926        H933   1.084       .  S
C927       C1325   1.403       .  A
C927        C928   1.399       .  A
C927        H934   1.084       .  S
C928       C1329   1.406       .  A
C928        H935   1.083       .  S
C929       C1239   1.480       .  S
C929       C1328   1.406       .  A
C929        C930   1.405       .  A
C930        H936   1.084   1_565  S
C937        C938   1.405       .  A
C937        C942   1.406       .  A
C938        C939   1.398       .  A
C938        H947   1.083       .  S
C939        C940   1.403       .  A
C939        H948   1.084       .  S
C940        C946   1.403       .  A
C940        C941   1.413       .  A
C941        C943   1.401       .  A
C941        C942   1.400       .  A
C942        H949   1.085       .  S
C943        C944   1.395       .  A
C943        H950   1.084       .  S
C944        C945   1.404       .  A
C944        H951   1.083       .  S
C945        C946   1.406       .  A
C946        H952   1.084       .  S
C953        C954   1.404       .  A
C953        C958   1.406       .  A
C954        C955   1.393       .  A
C954        H963   1.083       .  S
C955        C956   1.400       .  A
C955        H964   1.084       .  S
C956        C962   1.400       .  A
C956        C957   1.415       .  A
C957        C959   1.403       .  A
C957        C958   1.405       .  A
C958        H965   1.084       .  S
C959        C960   1.399       .  A
C959        H966   1.084       .  S
C960       C1161   1.406       .  A
C960        H967   1.083       .  S
C961       C1160   1.406       .  A
C961       C1162   1.402       .  A
C962       C1161   1.402       .  A
C962       H1168   1.085       .  S
H968       C1162   1.085       .  S
C969        C970   1.407   1_545  A
C969        C974   1.406       .  A
C970        C971   1.399       .  A
C970        H979   1.083       .  S
C971       C1372   1.402       .  A
C971        H980   1.084       .  S
C972       C1371   1.402       .  A
C972        C978   1.408       .  A
C972        C973   1.415       .  A
C973        C975   1.401       .  A
C973       C1374   1.406       .  A
C974       C1373   1.406   1_545  A
C974       H1381   1.084       .  S
C975        C976   1.397       .  A
C975        H982   1.084       .  S
C976        C977   1.405       .  A
C976        H983   1.083       .  S
C977        C978   1.406       .  A
C978        H984   1.084       .  S
H981       C1374   1.084       .  S
C985       C1486   1.487       .  S
C985        C990   1.408       .  A
C986       C1387   1.401       .  A
C986        H995   1.083       .  S
C987       C1386   1.401       .  A
C987        C988   1.404       .  A
C987       H1396   1.083       .  S
C988        C994   1.409       .  A
C988        C989   1.414   1_655  A
C989        C991   1.402       .  A
C990        H997   1.084       .  S
C991        C992   1.397       .  A
C992        C993   1.404   1_455  A
C992        H999   1.083       .  S
C993        C994   1.408       .  A
C994       H1000   1.084       .  S
H996       C1387   1.083       .  S
C1001      N1002   1.359       .  A
C1001      N1006   1.360       .  A
C1001      C1193   1.481       .  S
N1002      C1003   1.359       .  A
C1003      N1004   1.360       .  A
N1004      C1005   1.361       .  A
C1005      N1006   1.362       .  A
C1005      C1032   1.475       .  S
C1007      N1008   1.362       .  A
C1007      N1012   1.359       .  A
C1007      C1177   1.480       .  S
N1008      C1009   1.362       .  A
C1009      N1010   1.357       .  A
C1009      C1029   1.470       .  S
N1010      C1011   1.356       .  A
C1011      N1012   1.357       .  A
C1011      C1476   1.468       .  S
C1013      N1014   1.359       .  A
C1013      N1018   1.358       .  A
C1013      C1153   1.474       .  S
N1014      C1015   1.357       .  A
C1015      N1016   1.360       .  A
C1015      C1075   1.473       .  S
N1016      C1017   1.361       .  A
C1017      N1018   1.358       .  A
C1017      C1030   1.470       .  S
O1019     Ni1027   1.917       .  S
O1019      C1029   1.280       .  A
O1020     Ni1027   1.914       .  S
O1020      C1030   1.280       .  A
O1021     Ni1027   1.927       .  S
O1021      C1031   1.284       .  A
O1022     Ni1027   1.928       .  S
O1022      C1032   1.284       .  A
O1023     Ni1028   1.918       .  S
O1023      C1032   1.281       .  A
O1024     Ni1028   1.918       .  S
O1024      C1031   1.280       .  A
O1025     Ni1028   1.922       .  S
O1025      C1030   1.283       .  A
O1026     Ni1028   1.921       .  S
O1026      C1029   1.283       .  A
Ni1027    Ni1028   2.389       .  S
C1031      C1037   1.474       .  S
C1033      N1034   1.357       .  A
C1033      N1038   1.358       .  A
C1033      C1145   1.475       .  S
N1034      C1035   1.357       .  A
C1035      N1036   1.363       .  A
C1035      C1064   1.474       .  S
N1036      C1037   1.364       .  A
C1037      N1038   1.357       .  A
C1039      N1040   1.358       .  A
C1039      N1444   1.358       .  A
C1039      C1529   1.480       .  S
N1040      C1041   1.360       .  A
C1041      N1042   1.360       .  A
C1041      C1062   1.473       .  S
N1042      C1443   1.362       .  A
C1043      N1442   1.362       .  A
C1043      N1044   1.356       .  A
C1043      C1078   1.470   1_565  S
N1044      C1439   1.358       .  A
C1045      N1046   1.365       .  A
C1045      N1050   1.352       .  A
C1045      C1113   1.486       .  S
N1046      C1047   1.368       .  A
C1047      N1048   1.365       .  A
N1048      C1049   1.355       .  A
C1049      N1050   1.348       .  A
C1049      C1077   1.467       .  S
O1051     Ni1059   1.937       .  S
O1051      C1061   1.285       .  A
O1052     Ni1059   1.932       .  S
O1052      C1062   1.284       .  A
O1053     Ni1059   1.922       .  S
O1053      C1063   1.282       .  A
O1054     Ni1059   1.922       .  S
O1054      C1064   1.281       .  A
O1055     Ni1060   1.921       .  S
O1055      C1064   1.283       .  A
O1056     Ni1060   1.922       .  S
O1056      C1063   1.282       .  A
O1057     Ni1060   1.909       .  S
O1057      C1062   1.279       .  A
O1058     Ni1060   1.908       .  S
O1058      C1061   1.279       .  A
Ni1059    Ni1060   2.389       .  S
O1065     Ni1073   1.923       .  S
O1065      C1075   1.283       .  A
O1066     Ni1073   1.918       .  S
O1066      C1076   1.282       .  A
O1067     Ni1073   1.902       .  S
O1067      C1077   1.280       .  A
O1068     Ni1073   1.908       .  S
O1068      C1078   1.278       .  A
O1069     Ni1074   1.928       .  S
O1069      C1078   1.285       .  A
O1070     Ni1074   1.929       .  S
O1070      C1077   1.282       .  A
O1071     Ni1074   1.916       .  S
O1071      C1076   1.281       .  A
O1072     Ni1074   1.919       .  S
O1072      C1075   1.281       .  A
Ni1073    Ni1074   2.390       .  S
C1076      C1411   1.468   1_545  S
O1079     Ni1085   1.931       .  S
O1079      C1100   1.272       .  A
O1080     Ni1103   1.895       .  S
O1081     Ni1085   1.922       .  S
O1081     Ni1103   1.904       .  S
O1081     Ni1097   1.915       .  S
O1081      H1104   0.966       .  S
C1082      C1105   1.481   1_554  S
O1083     Ni1102   1.943       .  S
O1083      C1089   1.278       .  A
O1084     Ni1102   1.913       .  S
Ni1085     O1088   1.930       .  S
Ni1085     O1090   1.911       .  S
C1086      C1385   1.487   1_545  S
C1086      O1096   1.281       .  A
O1087     Ni1103   1.908       .  S
O1087      C1093   1.268       .  A
O1088      C1093   1.272       .  A
C1089      C1169   1.483       .  S
O1090      C1092   1.274       .  A
O1091     Ni1102   1.950       .  S
C1092      C1137   1.476       .  S
C1092      O1098   1.277       .  A
C1093      C1121   1.481       .  S
H1094      O1095   0.965       .  S
O1095     Ni1103   1.915       .  S
O1095     Ni1097   1.892       .  S
O1096     Ni1097   1.949       .  S
Ni1097     O1101   1.889       .  S
Ni1097     O1099   1.892       .  S
O1098     Ni1103   1.934       .  S
C1100      C1161   1.473       .  S
C1100      O1101   1.263       .  A
C1105      C1106   1.409       .  A
C1106      C1107   1.399       .  A
C1106      H1115   1.083   1_556  S
C1107      H1116   1.083       .  S
C1108      C1114   1.410       .  A
C1108      C1109   1.415       .  A
C1109      C1111   1.395       .  A
C1109      C1110   1.401       .  A
C1110      H1117   1.084       .  S
C1111      C1112   1.390       .  A
C1111      H1118   1.084       .  S
C1112      C1113   1.412       .  A
C1112      H1119   1.083       .  S
C1113      C1114   1.406       .  A
C1114      H1120   1.084   1_655  S
C1121      C1122   1.407       .  A
C1121      C1126   1.408   1_545  A
C1122      C1123   1.394       .  A
C1122      H1131   1.083       .  S
C1123      C1124   1.399       .  A
C1123      H1132   1.084       .  S
C1124      C1130   1.401   1_545  A
C1124      C1125   1.414   1_545  A
C1125      C1527   1.403       .  A
C1125      C1126   1.406       .  A
C1126      H1133   1.084       .  S
C1127      C1525   1.403       .  A
C1127      C1128   1.399       .  A
C1127      H1134   1.084       .  S
C1128      C1529   1.406       .  A
C1128      H1135   1.083       .  S
C1129      C1439   1.480       .  S
C1129      C1528   1.406       .  A
C1129      C1130   1.405       .  A
C1130      H1136   1.084   1_565  S
C1137      C1138   1.405       .  A
C1137      C1142   1.406       .  A
C1138      C1139   1.398       .  A
C1138      H1147   1.083       .  S
C1139      C1140   1.403       .  A
C1139      H1148   1.084       .  S
C1140      C1146   1.403       .  A
C1140      C1141   1.413       .  A
C1141      C1143   1.401       .  A
C1141      C1142   1.400       .  A
C1142      H1149   1.085       .  S
C1143      C1144   1.395       .  A
C1143      H1150   1.084       .  S
C1144      C1145   1.404       .  A
C1144      H1151   1.083       .  S
C1145      C1146   1.406       .  A
C1146      H1152   1.084       .  S
C1153      C1154   1.404       .  A
C1153      C1158   1.406       .  A
C1154      C1155   1.393       .  A
C1154      H1163   1.083       .  S
C1155      C1156   1.400       .  A
C1155      H1164   1.084       .  S
C1156      C1162   1.400       .  A
C1156      C1157   1.415       .  A
C1157      C1159   1.403       .  A
C1157      C1158   1.405       .  A
C1158      H1165   1.084       .  S
C1159      C1160   1.399       .  A
C1159      H1166   1.084       .  S
C1160      H1167   1.083       .  S
C1169      C1170   1.407   1_545  A
C1169      C1174   1.406       .  A
C1170      C1171   1.399       .  A
C1170      H1179   1.083       .  S
C1171      C1572   1.402       .  A
C1171      H1180   1.084       .  S
C1172      C1571   1.402       .  A
C1172      C1178   1.408       .  A
C1172      C1173   1.415       .  A
C1173      C1175   1.401       .  A
C1173      C1574   1.406       .  A
C1174      C1573   1.406   1_545  A
C1174      H1581   1.084       .  S
C1175      C1176   1.397       .  A
C1175      H1182   1.084       .  S
C1176      C1177   1.405       .  A
C1176      H1183   1.083       .  S
C1177      C1178   1.406       .  A
C1178      H1184   1.084       .  S
H1181      C1574   1.084       .  S
C1185      C1286   1.487   1_556  S
C1185      C1190   1.408       .  A
C1186      C1587   1.401       .  A
C1186      H1195   1.083   1_556  S
C1187      C1586   1.401       .  A
C1187      C1188   1.404       .  A
C1187      H1596   1.083       .  S
C1188      C1194   1.409       .  A
C1188      C1189   1.414   1_655  A
C1189      C1191   1.402       .  A
C1190      H1197   1.084       .  S
C1191      C1192   1.397       .  A
C1192      C1193   1.404   1_455  A
C1192      H1199   1.083       .  S
C1193      C1194   1.408       .  A
C1194      H1200   1.084       .  S
H1196      C1587   1.083       .  S
C1201      N1202   1.359       .  A
C1201      N1206   1.360       .  A
C1201      C1393   1.481       .  S
N1202      C1203   1.359       .  A
C1203      N1204   1.360       .  A
N1204      C1205   1.361       .  A
C1205      N1206   1.362       .  A
C1205      C1232   1.475       .  S
C1207      N1208   1.362       .  A
C1207      N1212   1.359       .  A
C1207      C1377   1.480       .  S
N1208      C1209   1.362       .  A
C1209      N1210   1.357       .  A
C1209      C1229   1.470       .  S
N1210      C1211   1.356       .  A
C1211      N1212   1.357       .  A
C1213      N1214   1.359       .  A
C1213      N1218   1.358       .  A
C1213      C1353   1.474       .  S
N1214      C1215   1.357       .  A
C1215      N1216   1.360       .  A
C1215      C1275   1.473       .  S
N1216      C1217   1.361       .  A
C1217      N1218   1.358       .  A
C1217      C1230   1.470       .  S
O1219     Ni1227   1.917       .  S
O1219      C1229   1.280       .  A
O1220     Ni1227   1.914       .  S
O1220      C1230   1.280       .  A
O1221     Ni1227   1.927       .  S
O1221      C1231   1.284       .  A
O1222     Ni1227   1.928       .  S
O1222      C1232   1.284       .  A
O1223     Ni1228   1.918       .  S
O1223      C1232   1.281       .  A
O1224     Ni1228   1.918       .  S
O1224      C1231   1.280       .  A
O1225     Ni1228   1.922       .  S
O1225      C1230   1.283       .  A
O1226     Ni1228   1.921       .  S
O1226      C1229   1.283       .  A
Ni1227    Ni1228   2.389       .  S
C1231      C1237   1.474       .  S
C1233      N1234   1.357       .  A
C1233      N1238   1.358       .  A
C1233      C1345   1.475       .  S
N1234      C1235   1.357       .  A
C1235      N1236   1.363       .  A
C1235      C1264   1.474       .  S
N1236      C1237   1.364       .  A
C1237      N1238   1.357       .  A
C1239      N1240   1.358       .  A
N1240      C1241   1.360       .  A
C1241      N1242   1.360       .  A
C1241      C1262   1.473       .  S
C1243      N1244   1.356       .  A
C1243      C1278   1.470       .  S
C1245      N1246   1.365       .  A
C1245      N1250   1.352       .  A
C1245      C1313   1.486       .  S
N1246      C1247   1.368       .  A
C1247      N1248   1.365       .  A
N1248      C1249   1.355       .  A
C1249      N1250   1.348       .  A
C1249      C1277   1.467       .  S
O1251     Ni1259   1.937       .  S
O1251      C1261   1.285       .  A
O1252     Ni1259   1.932       .  S
O1252      C1262   1.284       .  A
O1253     Ni1259   1.922       .  S
O1253      C1263   1.282       .  A
O1254     Ni1259   1.922       .  S
O1254      C1264   1.281       .  A
O1255     Ni1260   1.921       .  S
O1255      C1264   1.283       .  A
O1256     Ni1260   1.922       .  S
O1256      C1263   1.282       .  A
O1257     Ni1260   1.909       .  S
O1257      C1262   1.279       .  A
O1258     Ni1260   1.908       .  S
O1258      C1261   1.279       .  A
Ni1259    Ni1260   2.389       .  S
O1265     Ni1273   1.923       .  S
O1265      C1275   1.283       .  A
O1266     Ni1273   1.918       .  S
O1266      C1276   1.282       .  A
O1267     Ni1273   1.902       .  S
O1267      C1277   1.280       .  A
O1268     Ni1273   1.908       .  S
O1268      C1278   1.278       .  A
O1269     Ni1274   1.928       .  S
O1269      C1278   1.285       .  A
O1270     Ni1274   1.929       .  S
O1270      C1277   1.282       .  A
O1271     Ni1274   1.916       .  S
O1271      C1276   1.281       .  A
O1272     Ni1274   1.919       .  S
O1272      C1275   1.281       .  A
Ni1273    Ni1274   2.390       .  S
O1279     Ni1285   1.931       .  S
O1279      C1300   1.272       .  A
O1280     Ni1303   1.895       .  S
O1281     Ni1285   1.922       .  S
O1281     Ni1303   1.904       .  S
O1281     Ni1297   1.915       .  S
O1281      H1304   0.966       .  S
C1282      C1305   1.481       .  S
C1282      O1499   1.262       .  A
O1283     Ni1302   1.943       .  S
O1283      C1289   1.278       .  A
O1284     Ni1302   1.913       .  S
Ni1285     O1288   1.930       .  S
Ni1285     O1290   1.911       .  S
C1286      O1296   1.281       .  A
O1287     Ni1303   1.908       .  S
O1287      C1293   1.268       .  A
O1288      C1293   1.272       .  A
C1289      C1369   1.483       .  S
O1290      C1292   1.274       .  A
O1291     Ni1302   1.950       .  S
C1292      C1337   1.476       .  S
C1292      O1298   1.277       .  A
C1293      C1321   1.481       .  S
H1294      O1295   0.965       .  S
O1295     Ni1303   1.915       .  S
O1295     Ni1297   1.892       .  S
O1296     Ni1297   1.949       .  S
Ni1297     O1301   1.889       .  S
Ni1297     O1299   1.892       .  S
O1298     Ni1303   1.934       .  S
O1299      C1482   1.262       .  A
C1300      C1361   1.473   1_554  S
C1300      O1301   1.263       .  A
C1305      C1306   1.409       .  A
C1306      C1307   1.399       .  A
C1306      H1315   1.083       .  S
C1307      H1316   1.083       .  S
C1308      C1314   1.410       .  A
C1308      C1309   1.415       .  A
C1309      C1311   1.395       .  A
C1309      C1310   1.401       .  A
C1310      H1317   1.084       .  S
C1311      C1312   1.390       .  A
C1311      H1318   1.084       .  S
C1312      C1313   1.412       .  A
C1312      H1319   1.083       .  S
C1313      C1314   1.406       .  A
C1314      H1320   1.084   1_655  S
C1321      C1322   1.407       .  A
C1321      C1326   1.408       .  A
C1322      C1323   1.394       .  A
C1322      H1331   1.083       .  S
C1323      C1324   1.399       .  A
C1323      H1332   1.084       .  S
C1324      C1330   1.401       .  A
C1324      C1325   1.414       .  A
C1325      C1326   1.406       .  A
C1326      H1333   1.084       .  S
C1327      C1328   1.399       .  A
C1327      H1334   1.084       .  S
C1328      H1335   1.083       .  S
C1329      C1330   1.405       .  A
C1330      H1336   1.084       .  S
C1337      C1338   1.405       .  A
C1337      C1342   1.406       .  A
C1338      C1339   1.398       .  A
C1338      H1347   1.083       .  S
C1339      C1340   1.403       .  A
C1339      H1348   1.084       .  S
C1340      C1346   1.403       .  A
C1340      C1341   1.413       .  A
C1341      C1343   1.401       .  A
C1341      C1342   1.400       .  A
C1342      H1349   1.085       .  S
C1343      C1344   1.395       .  A
C1343      H1350   1.084       .  S
C1344      C1345   1.404       .  A
C1344      H1351   1.083       .  S
C1345      C1346   1.406       .  A
C1346      H1352   1.084       .  S
C1353      C1354   1.404       .  A
C1353      C1358   1.406       .  A
C1354      C1355   1.393       .  A
C1354      H1363   1.083       .  S
C1355      C1356   1.400       .  A
C1355      H1364   1.084       .  S
C1356      C1362   1.400       .  A
C1356      C1357   1.415       .  A
C1357      C1359   1.403       .  A
C1357      C1358   1.405       .  A
C1358      H1365   1.084       .  S
C1359      C1360   1.399       .  A
C1359      H1366   1.084       .  S
C1360      C1561   1.406       .  A
C1360      H1367   1.083       .  S
C1361      C1560   1.406       .  A
C1361      C1562   1.402       .  A
C1362      C1561   1.402       .  A
C1362      H1568   1.085       .  S
H1368      C1562   1.085       .  S
C1369      C1370   1.407       .  A
C1369      C1374   1.406       .  A
C1370      C1371   1.399       .  A
C1370      H1379   1.083       .  S
C1371      H1380   1.084       .  S
C1372      C1378   1.408       .  A
C1372      C1373   1.415       .  A
C1373      C1375   1.401   1_565  A
C1375      C1376   1.397   1_545  A
C1375      H1382   1.084       .  S
C1376      C1377   1.405       .  A
C1376      H1383   1.083   1_565  S
C1377      C1378   1.406       .  A
C1378      H1384   1.084       .  S
C1385      C1390   1.408   1_565  A
C1386      H1395   1.083       .  S
C1387      C1388   1.404       .  A
C1388      C1394   1.409       .  A
C1388      C1389   1.414   1_655  A
C1389      C1391   1.402       .  A
C1390      H1397   1.084       .  S
C1391      C1392   1.397       .  A
C1392      C1393   1.404   1_455  A
C1392      H1399   1.083       .  S
C1393      C1394   1.408       .  A
C1394      H1400   1.084       .  S
C1401      N1402   1.359       .  A
C1401      N1406   1.360       .  A
C1401      C1593   1.481       .  S
N1402      C1403   1.359       .  A
C1403      N1404   1.360       .  A
N1404      C1405   1.361       .  A
C1405      N1406   1.362       .  A
C1405      C1432   1.475       .  S
C1407      N1408   1.362       .  A
C1407      N1412   1.359       .  A
C1407      C1577   1.480       .  S
N1408      C1409   1.362       .  A
C1409      N1410   1.357       .  A
C1409      C1429   1.470       .  S
N1410      C1411   1.356       .  A
C1411      N1412   1.357       .  A
C1413      N1414   1.359       .  A
C1413      N1418   1.358       .  A
C1413      C1553   1.474       .  S
N1414      C1415   1.357       .  A
C1415      N1416   1.360       .  A
C1415      C1475   1.473       .  S
N1416      C1417   1.361       .  A
C1417      N1418   1.358       .  A
C1417      C1430   1.470       .  S
O1419     Ni1427   1.917       .  S
O1419      C1429   1.280       .  A
O1420     Ni1427   1.914       .  S
O1420      C1430   1.280       .  A
O1421     Ni1427   1.927       .  S
O1421      C1431   1.284       .  A
O1422     Ni1427   1.928       .  S
O1422      C1432   1.284       .  A
O1423     Ni1428   1.918       .  S
O1423      C1432   1.281       .  A
O1424     Ni1428   1.918       .  S
O1424      C1431   1.280       .  A
O1425     Ni1428   1.922       .  S
O1425      C1430   1.283       .  A
O1426     Ni1428   1.921       .  S
O1426      C1429   1.283       .  A
Ni1427    Ni1428   2.389       .  S
C1431      C1437   1.474       .  S
C1433      N1434   1.357       .  A
C1433      N1438   1.358       .  A
C1433      C1545   1.475       .  S
N1434      C1435   1.357       .  A
C1435      N1436   1.363       .  A
C1435      C1464   1.474       .  S
N1436      C1437   1.364       .  A
C1437      N1438   1.357       .  A
C1439      N1440   1.358       .  A
N1440      C1441   1.360       .  A
C1441      N1442   1.360       .  A
C1441      C1462   1.473       .  S
C1443      N1444   1.356       .  A
C1443      C1478   1.470       .  S
C1445      N1446   1.365       .  A
C1445      N1450   1.352       .  A
C1445      C1513   1.486       .  S
N1446      C1447   1.368       .  A
C1447      N1448   1.365       .  A
N1448      C1449   1.355       .  A
C1449      N1450   1.348       .  A
C1449      C1477   1.467       .  S
O1451     Ni1459   1.937       .  S
O1451      C1461   1.285       .  A
O1452     Ni1459   1.932       .  S
O1452      C1462   1.284       .  A
O1453     Ni1459   1.922       .  S
O1453      C1463   1.282       .  A
O1454     Ni1459   1.922       .  S
O1454      C1464   1.281       .  A
O1455     Ni1460   1.921       .  S
O1455      C1464   1.283       .  A
O1456     Ni1460   1.922       .  S
O1456      C1463   1.282       .  A
O1457     Ni1460   1.909       .  S
O1457      C1462   1.279       .  A
O1458     Ni1460   1.908       .  S
O1458      C1461   1.279       .  A
Ni1459    Ni1460   2.389       .  S
O1465     Ni1473   1.923       .  S
O1465      C1475   1.283       .  A
O1466     Ni1473   1.918       .  S
O1466      C1476   1.282       .  A
O1467     Ni1473   1.902       .  S
O1467      C1477   1.280       .  A
O1468     Ni1473   1.908       .  S
O1468      C1478   1.278       .  A
O1469     Ni1474   1.928       .  S
O1469      C1478   1.285       .  A
O1470     Ni1474   1.929       .  S
O1470      C1477   1.282       .  A
O1471     Ni1474   1.916       .  S
O1471      C1476   1.281       .  A
O1472     Ni1474   1.919       .  S
O1472      C1475   1.281       .  A
Ni1473    Ni1474   2.390       .  S
O1479     Ni1485   1.931       .  S
O1479      C1500   1.272       .  A
O1480     Ni1503   1.895       .  S
O1481     Ni1485   1.922       .  S
O1481     Ni1503   1.904       .  S
O1481     Ni1497   1.915       .  S
O1481      H1504   0.966       .  S
C1482      C1505   1.481   1_554  S
O1483     Ni1502   1.943       .  S
O1483      C1489   1.278       .  A
O1484     Ni1502   1.913       .  S
Ni1485     O1488   1.930       .  S
Ni1485     O1490   1.911       .  S
C1486      O1496   1.281       .  A
O1487     Ni1503   1.908       .  S
O1487      C1493   1.268       .  A
O1488      C1493   1.272       .  A
C1489      C1569   1.483       .  S
O1490      C1492   1.274       .  A
O1491     Ni1502   1.950       .  S
C1492      C1537   1.476       .  S
C1492      O1498   1.277       .  A
C1493      C1521   1.481       .  S
H1494      O1495   0.965       .  S
O1495     Ni1503   1.915       .  S
O1495     Ni1497   1.892       .  S
O1496     Ni1497   1.949       .  S
Ni1497     O1501   1.889       .  S
Ni1497     O1499   1.892       .  S
O1498     Ni1503   1.934       .  S
C1500      C1561   1.473       .  S
C1500      O1501   1.263       .  A
C1505      C1506   1.409       .  A
C1506      C1507   1.399       .  A
C1506      H1515   1.083   1_556  S
C1507      H1516   1.083       .  S
C1508      C1514   1.410       .  A
C1508      C1509   1.415       .  A
C1509      C1511   1.395       .  A
C1509      C1510   1.401       .  A
C1510      H1517   1.084       .  S
C1511      C1512   1.390       .  A
C1511      H1518   1.084       .  S
C1512      C1513   1.412       .  A
C1512      H1519   1.083       .  S
C1513      C1514   1.406       .  A
C1514      H1520   1.084   1_655  S
C1521      C1522   1.407       .  A
C1521      C1526   1.408       .  A
C1522      C1523   1.394       .  A
C1522      H1531   1.083       .  S
C1523      C1524   1.399       .  A
C1523      H1532   1.084       .  S
C1524      C1530   1.401       .  A
C1524      C1525   1.414       .  A
C1525      C1526   1.406       .  A
C1526      H1533   1.084       .  S
C1527      C1528   1.399       .  A
C1527      H1534   1.084       .  S
C1528      H1535   1.083       .  S
C1529      C1530   1.405       .  A
C1530      H1536   1.084       .  S
C1537      C1538   1.405       .  A
C1537      C1542   1.406       .  A
C1538      C1539   1.398       .  A
C1538      H1547   1.083       .  S
C1539      C1540   1.403       .  A
C1539      H1548   1.084       .  S
C1540      C1546   1.403       .  A
C1540      C1541   1.413       .  A
C1541      C1543   1.401       .  A
C1541      C1542   1.400       .  A
C1542      H1549   1.085       .  S
C1543      C1544   1.395       .  A
C1543      H1550   1.084       .  S
C1544      C1545   1.404       .  A
C1544      H1551   1.083       .  S
C1545      C1546   1.406       .  A
C1546      H1552   1.084       .  S
C1553      C1554   1.404       .  A
C1553      C1558   1.406       .  A
C1554      C1555   1.393       .  A
C1554      H1563   1.083       .  S
C1555      C1556   1.400       .  A
C1555      H1564   1.084       .  S
C1556      C1562   1.400       .  A
C1556      C1557   1.415       .  A
C1557      C1559   1.403       .  A
C1557      C1558   1.405       .  A
C1558      H1565   1.084       .  S
C1559      C1560   1.399       .  A
C1559      H1566   1.084       .  S
C1560      H1567   1.083       .  S
C1569      C1570   1.407       .  A
C1569      C1574   1.406       .  A
C1570      C1571   1.399       .  A
C1570      H1579   1.083       .  S
C1571      H1580   1.084       .  S
C1572      C1578   1.408       .  A
C1572      C1573   1.415       .  A
C1573      C1575   1.401   1_565  A
C1575      C1576   1.397   1_545  A
C1575      H1582   1.084       .  S
C1576      C1577   1.405       .  A
C1576      H1583   1.083   1_565  S
C1577      C1578   1.406       .  A
C1578      H1584   1.084       .  S
C1585      C1590   1.408   1_565  A
C1586      H1595   1.083   1_556  S
C1587      C1588   1.404       .  A
C1588      C1594   1.409       .  A
C1588      C1589   1.414   1_655  A
C1589      C1591   1.402       .  A
C1590      H1597   1.084       .  S
C1591      C1592   1.397       .  A
C1592      C1593   1.404   1_455  A
C1592      H1599   1.083       .  S
C1593      C1594   1.408       .  A
C1594      H1600   1.084       .  S
