geometry optimzed in LAMMPS
_audit_creation_date              2020-11-30 
_audit_creation_method            'lammps2cif' 
_symmetry_space_group_name_H-M    'P1' 
_symmetry_Int_Tables_number       1 
_symmetry_cell_setting            triclinic 
loop_ 
_symmetry_equiv_pos_as_xyz 
  x,y,z 
_cell_length_a                    52.54519726 
_cell_length_b                    52.51998447638254 
_cell_length_c                    46.28978332026052 
_cell_angle_alpha                 90.00494969748466 
_cell_angle_beta                  90.05781071936173 
_cell_angle_gamma                 120.2095252552055 
loop_ 
_atom_site_label 
_atom_site_type_symbol 
_atom_site_fract_x 
_atom_site_fract_y 
_atom_site_fract_z 
_atom_site_charge 
C1          C  0.27327472  0.28637415  0.99967112     0.03100
C2          C  0.28918932  0.30059383  0.02475637    -0.13100
C3          C  0.31454794  0.32860590  0.02332139     0.00600
C4          C  0.32387948  0.34228649  0.49620786    -0.11600
C5          C  0.30869721  0.32813060  0.47080567     0.03100
C6          C  0.28326430  0.30017051  0.47267525    -0.11000
H7          H  0.28175880  0.28969585  0.04544596     0.08700
H8          H  0.34334812  0.36392532  0.49471635     0.06200
H9          H  0.27137979  0.28911177  0.45319168     0.06000
C10         C  0.69068047  0.68691835  0.00137124     0.03100
C11         C  0.67710403  0.67730766  0.02847114    -0.13100
C12         C  0.64905199  0.65213777  0.03055156     0.00600
C13         C  0.63464268  0.63668572  0.50541061    -0.11600
C14         C  0.64800511  0.64578831  0.47823537     0.03100
C15         C  0.67614832  0.67088577  0.47648031    -0.11000
H16         H  0.68824709  0.68941714  0.04783248     0.08700
H17         H  0.61283282  0.61748686  0.50710605     0.06200
H18         H  0.68672053  0.67821825  0.45564137     0.06000
N19         N  0.48506216  0.48583601  0.20615329    -0.36700
N20         N  0.52141113  0.52625475  0.25224917    -0.57200
N21         N  0.48088668  0.48546743  0.29490445    -0.36700
N22         N  0.44250390  0.44731293  0.24884255    -0.57200
C23         C  0.50399043  0.50939093  0.19014799     0.26900
C24         C  0.46306568  0.46703651  0.18839854     0.26900
C25         C  0.49904281  0.50825664  0.31219842     0.26900
C26         C  0.45613350  0.46803560  0.31019307     0.26900
C27         C  0.53862144  0.54072616  0.22938451     0.35500
C28         C  0.53758366  0.53929021  0.27616500     0.35500
C29         C  0.43024329  0.43033012  0.22520921     0.35500
C30         C  0.42739248  0.43087390  0.27188983     0.35500
C31         C  0.49434510  0.50506520  0.16169378    -0.21900
C32         C  0.46859198  0.47842664  0.16059848    -0.21900
C33         C  0.48591751  0.50501722  0.33895003    -0.21900
C34         C  0.45883553  0.47974807  0.33765741    -0.21900
C35         C  0.56558629  0.56350436  0.23882981    -0.23000
C36         C  0.56502920  0.56243241  0.26844720    -0.23000
C37         C  0.40716890  0.40298284  0.23328461    -0.23000
C38         C  0.40530327  0.40335784  0.26284138    -0.23000
C39         C  0.53024386  0.53434501  0.20005430    -0.18300
C40         C  0.43822174  0.43973498  0.19632530    -0.18300
C41         C  0.43189854  0.44094666  0.30079172    -0.18300
C42         C  0.52746578  0.53157361  0.30488916    -0.18300
H43         H  0.50470905  0.51963642  0.14352092     0.14600
H44         H  0.45533791  0.46870624  0.14146043     0.14600
H45         H  0.49484808  0.51947564  0.35746365     0.14600
H46         H  0.44305131  0.47089356  0.35512416     0.14600
H47         H  0.58384595  0.57918544  0.22574749     0.12800
H48         H  0.58272461  0.57722855  0.28263252     0.12800
H49         H  0.39287666  0.38479928  0.21931194     0.12800
H50         H  0.38925778  0.38552720  0.27610450     0.12800
H51         H  0.48827384  0.48173995  0.22730561     0.26100
H52         H  0.48647791  0.48043212  0.27512320     0.26100
C53         C  0.68166621  0.96876631  0.99873010     0.03100
C54         C  0.66666960  0.96875564  0.02384144    -0.13100
C55         C  0.63924426  0.96705269  0.02220373     0.00600
C56         C  0.62651564  0.96492099  0.99504207    -0.11600
C57         C  0.64090615  0.96469888  0.46959046     0.03100
C58         C  0.66864278  0.96674500  0.47152592    -0.11000
H59         H  0.67617955  0.96958486  0.04484606     0.08700
H60         H  0.60568746  0.96443371  0.99361127     0.06200
H61         H  0.68004906  0.96688751  0.45199110     0.06000
C62         C  0.28529445  0.99256378  0.99619723     0.03100
C63         C  0.29976725  0.99277159  0.47059800    -0.13100
C64         C  0.32820102  0.99665794  0.47146346     0.00600
C65         C  0.34197018  0.99976245  0.99820731    -0.11600
C66         C  0.32764257  0.99870839  0.02414208     0.03100
C67         C  0.29929311  0.99525641  0.02294398    -0.11000
H68         H  0.28933491  0.99092261  0.44988774     0.08700
H69         H  0.36350477  0.00172846  0.99881378     0.06200
H70         H  0.28815517  0.99476737  0.04279336     0.06000
N71         N  0.48529441  0.98656044  0.20295158    -0.36700
N72         N  0.52274170  0.98016644  0.24605271    -0.57200
N73         N  0.48318155  0.97790363  0.29137897    -0.36700
N74         N  0.44604489  0.98486114  0.24831388    -0.57200
C75         C  0.50357341  0.98277697  0.18514619     0.26900
C76         C  0.46365427  0.98590324  0.18641487     0.26900
C77         C  0.50490016  0.97874464  0.30793116     0.26900
C78         C  0.46480826  0.98150634  0.30920842     0.26900
C79         C  0.53742557  0.98024151  0.22210368     0.35500
C80         C  0.53730861  0.97748809  0.26885243     0.35500
C81         C  0.43178647  0.98808050  0.22554677     0.35500
C82         C  0.43148377  0.98500198  0.27227427     0.35500
C83         C  0.49384344  0.98053159  0.15686267    -0.21900
C84         C  0.46879028  0.98253278  0.15766173    -0.21900
C85         C  0.49966339  0.98194205  0.33669321    -0.21900
C86         C  0.47451458  0.98372470  0.33749827    -0.21900
C87         C  0.56164969  0.97780784  0.22976874    -0.23000
C88         C  0.56157359  0.97607649  0.25935026    -0.23000
C89         C  0.40787834  0.99011636  0.23508564    -0.23000
C90         C  0.40763229  0.98808876  0.26464105    -0.23000
C91         C  0.52883945  0.98124817  0.19331722    -0.18300
C92         C  0.43940403  0.98842779  0.19618508    -0.18300
C93         C  0.43978663  0.98346270  0.30105092    -0.18300
C94         C  0.52944917  0.97675936  0.29819192    -0.18300
H95         H  0.50363679  0.97754509  0.13754076     0.14600
H96         H  0.45571471  0.98136847  0.13908883     0.14600
H97         H  0.51283632  0.98332322  0.35526092     0.14600
H98         H  0.46478923  0.98680629  0.35681979     0.14600
H99         H  0.57758592  0.97704941  0.21553462     0.12800
H100        H  0.57755700  0.97398144  0.27234994     0.12800
H101        H  0.39217082  0.99270215  0.22212186     0.12800
H102        H  0.39179985  0.98904106  0.27886986     0.12800
H103        H  0.48865060  0.99148905  0.22473518     0.26100
H104        H  0.47994091  0.97315605  0.26955382     0.26100
C105        C  0.97912796  0.27669507  0.00154735     0.03100
C106        C  0.97926975  0.29206347  0.47653520    -0.13100
C107        C  0.98055951  0.31937535  0.47858107     0.00600
C108        C  0.98233287  0.33161106  0.00596713    -0.11600
C109        C  0.98232760  0.31678223  0.03113318     0.03100
C110        C  0.98034095  0.28918271  0.02884931    -0.11000
H111        H  0.97849226  0.28285684  0.45540069     0.08700
H112        H  0.98387471  0.35292042  0.00776666     0.06200
H113        H  0.97996846  0.27762157  0.04836262     0.06000
C114        C  0.99939779  0.69497028  0.00121313     0.03100
C115        C  0.99839274  0.67920371  0.02625378    -0.13100
C116        C  0.00077644  0.65373602  0.02442143     0.00600
C117        C  0.00481371  0.64452178  0.99717372    -0.11600
C118        C  0.00553467  0.65963429  0.47191729     0.03100
C119        C  0.00265284  0.68475228  0.47408644    -0.11000
H120        H  0.99557481  0.68666503  0.04717778     0.08700
H121        H  0.00693623  0.62510174  0.99550891     0.06200
H122        H  0.00291269  0.69630545  0.45460547     0.06000
N123        N  0.98456559  0.48081422  0.20749220    -0.36700
N124        N  0.98692559  0.44527450  0.25470363    -0.57200
N125        N  0.99319405  0.49032043  0.29585186    -0.36700
N126        N  0.99396602  0.52729614  0.24866347    -0.57200
C127        C  0.98783026  0.46051770  0.19237033     0.26900
C128        C  0.99025692  0.50318492  0.18916740     0.26900
C129        C  0.99585880  0.47166953  0.31410004     0.26900
C130        C  0.00016450  0.51515887  0.31081509     0.26900
C131        C  0.98197444  0.42634715  0.23275557     0.35500
C132        C  0.98456799  0.43054412  0.27941455     0.35500
C133        C  0.98958878  0.53897881  0.22445962     0.35500
C134        C  0.99416262  0.54401420  0.27100704     0.35500
C135        C  0.99492170  0.46981999  0.16396372    -0.21900
C136        C  0.99643707  0.49665257  0.16195152    -0.21900
C137        C  0.00433231  0.48471289  0.34113398    -0.21900
C138        C  0.00710418  0.51210208  0.33905173    -0.21900
C139        C  0.97680766  0.39954022  0.24353063    -0.23000
C140        C  0.97835870  0.40215867  0.27307625    -0.23000
C141        C  0.98733877  0.56345500  0.23142910    -0.23000
C142        C  0.99033051  0.56669369  0.26087792    -0.23000
C143        C  0.98400718  0.43348979  0.20309429    -0.18300
C144        C  0.98952692  0.52914918  0.19597568    -0.18300
C145        C  0.99868094  0.53977147  0.30035650    -0.18300
C146        C  0.98951496  0.44266664  0.30758100    -0.18300
H147        H  0.99882129  0.45855547  0.14645035     0.14600
H148        H  0.00179614  0.50998244  0.14263161     0.14600
H149        H  0.00785104  0.47537816  0.36052527     0.14600
H150        H  0.01308011  0.52776198  0.35655966     0.14600
H151        H  0.97273973  0.38023872  0.23137258     0.12800
H152        H  0.97576231  0.38524540  0.28813053     0.12800
H153        H  0.98415732  0.57769351  0.21679857     0.12800
H154        H  0.98983170  0.58385488  0.27337605     0.12800
H155        H  0.97625113  0.47834593  0.22823255     0.26100
H156        H  0.98419834  0.48514135  0.27538358     0.26100
O157        O  0.94893475  0.93236455  0.02259897    -0.88400
C158        C  0.01093315  0.95813105  0.45893724     0.87600
Mg159      Mg  0.91340708  0.94146538  0.02059837     1.58100
O160        O  0.03623765  0.99962235  0.02314124    -0.88100
O161        O  0.98573046  0.94030083  0.05073654    -0.75500
C162        C  0.97709930  0.08351126  0.49057116     0.92700
O163        O  0.94119861  0.93875076  0.45449630    -0.75300
O164        O  0.95295815  0.05955195  0.48664712    -0.82800
Mg165      Mg  0.95569626  0.91322905  0.48416770     1.58000
C166        C  0.08475233  0.09130147  0.01673212     0.92600
O167        O  0.96796651  0.88256058  0.00836078    -0.81000
H168        H  0.04436893  0.00239851  0.06556125    -0.06400
C169        C  0.01032868  0.03561397  0.45936311     0.87500
O170        O  0.93799790  0.98140384  0.05080043    -0.75600
O171        O  0.00048415  0.94865672  0.48307138    -0.88300
O172        O  0.08550264  0.06845642  0.00869485    -0.81100
C173        C  0.09238773  0.99086409  0.48942783     0.92700
C174        C  0.99179284  0.88323876  0.01522958     0.92600
Mg175      Mg  0.01322850  0.05338275  0.02214539     1.58000
O176        O  0.00051015  0.08374597  0.49829592    -0.81000
O177        O  0.02828287  0.02816410  0.05150542    -0.75300
O178        O  0.06921430  0.96743448  0.49740850    -0.81100
O179        O  0.90863741  0.87590798  0.48506047    -0.82800
O180        O  0.89900443  0.99873487  0.00811831    -0.81200
C181        C  0.03699992  0.00988886  0.04733826     0.87000
O182        O  0.96812463  0.01795379  0.02316765    -0.88300
O183        O  0.01985853  0.03451383  0.48345134    -0.88400
O184        O  0.98340084  0.02757288  0.45538731    -0.75500
Mg185      Mg  0.02608508  0.95472450  0.02145003     1.58000
O186        O  0.09257605  0.01499758  0.48573932    -0.82800
H187        H  0.94418589  0.92560905  0.06524366    -0.06600
O188        O  0.93321354  0.96754392  0.48249025    -0.88100
H189        H  0.92609142  0.96516667  0.43988168    -0.06400
H190        H  0.96442239  0.02310315  0.06546623    -0.06600
C191        C  0.93288095  0.95739522  0.45832686     0.87000
C192        C  0.95876207  0.93216150  0.04681317     0.87600
C193        C  0.95710988  0.00836283  0.04711086     0.87600
H194        H  0.02512282  0.04288304  0.44108200    -0.06500
O195        O  0.02985912  0.98506677  0.45493673    -0.75600
Mg196      Mg  0.94277564  0.01226003  0.48448238     1.58000
H197        H  0.00315612  0.94329957  0.44065498    -0.06600
C198        C  0.88460679  0.87597743  0.48773646     0.92600
O199        O  0.87590292  0.95094851  0.01873227    -0.82800
C200        C  0.87581811  0.97495287  0.01546093     0.92700
O201        O  0.01567597  0.90742257  0.01918642    -0.82800
Mg202      Mg  0.05530844  0.02520363  0.48456658     1.58200
O203        O  0.88400984  0.89901143  0.49523219    -0.81100
O204        O  0.06055348  0.09078800  0.02082756    -0.82800
C205        C  0.96639259  0.80156272  0.51320308    -0.10900
C206        C  0.99337139  0.80206723  0.01169246     0.06200
C207        C  0.01967411  0.82933704  0.01310632    -0.09700
C208        C  0.01907532  0.85555162  0.01563428    -0.11300
C209        C  0.99213708  0.85518112  0.01648131    -0.01100
C210        C  0.96577350  0.82785007  0.51536384    -0.10200
C211        C  0.99421263  0.77433235  0.00846275     0.06300
H212        H  0.04077804  0.83038585  0.01226800     0.08200
H213        H  0.03978716  0.87619904  0.01604198     0.11700
H214        H  0.94465551  0.82680099  0.51564141     0.11900
H215        H  0.94577592  0.78087797  0.51193128     0.08200
C216        C  0.97590441  0.74946118  0.52528404    -0.10900
C217        C  0.97744878  0.72369139  0.52286868    -0.10200
C218        C  0.99718324  0.72212262  0.00339614    -0.01100
C219        C  0.01512852  0.74689179  0.98625187    -0.11300
C220        C  0.01371468  0.77269435  0.98881067    -0.09700
H221        H  0.96077034  0.75013852  0.54070457     0.08200
H222        H  0.96305460  0.70491775  0.53613780     0.11900
H223        H  0.03073130  0.74654314  0.97122987     0.11600
H224        H  0.02786342  0.79140531  0.97534192     0.08200
C225        C  0.97812469  0.57793347  0.35733914    -0.10900
C226        C  0.00584737  0.60078058  0.36642409     0.06200
C227        C  0.03122754  0.60441956  0.35240387    -0.09700
C228        C  0.02891447  0.58521501  0.33021184    -0.11300
C229        C  0.00122187  0.56196903  0.32185774    -0.01100
C230        C  0.97586156  0.55863699  0.33535023    -0.10200
C231        C  0.00816469  0.61921098  0.39180297     0.06300
H232        H  0.05284992  0.62189415  0.35887088     0.08200
H233        H  0.04870748  0.58798420  0.32004762     0.11700
H234        H  0.95436374  0.54063814  0.32928668     0.11900
H235        H  0.95823815  0.57428804  0.36801604     0.08200
C236        C  0.98865731  0.62997849  0.39523252    -0.10900
C237        C  0.98875348  0.64445155  0.42069902    -0.10200
C238        C  0.00811155  0.64811072  0.44338232    -0.01100
C239        C  0.02841329  0.63842443  0.43943854    -0.11300
C240        C  0.02852689  0.62425563  0.41390299    -0.09700
H241        H  0.97289850  0.62662516  0.37844071     0.08200
H242        H  0.97278714  0.65157161  0.42318073     0.11900
H243        H  0.04377459  0.64120588  0.45645088     0.11600
H244        H  0.04368242  0.61605598  0.41198999     0.08200
C245        C  0.98104931  0.58832457  0.07340689    -0.10900
C246        C  0.99443035  0.60196583  0.09962567     0.06200
C247        C  0.00960263  0.63292968  0.10117849    -0.09700
C248        C  0.01146896  0.64982484  0.07696701    -0.11300
C249        C  0.99831903  0.63611662  0.05062972    -0.01100
C250        C  0.98291792  0.60514563  0.04928283    -0.10200
C251        C  0.99288307  0.58381001  0.12497798     0.06300
H252        H  0.01992966  0.64408399  0.12116435     0.08200
H253        H  0.02365834  0.67361011  0.07872674     0.11700
H254        H  0.97208977  0.59379859  0.02953593     0.11900
H255        H  0.96947300  0.56455916  0.07138081     0.08200
C256        C  0.96666124  0.55750074  0.13147271    -0.10900
C257        C  0.96553222  0.53980974  0.15459626    -0.10200
C258        C  0.99054949  0.54814086  0.17168405    -0.01100
C259        C  0.01667479  0.57443225  0.16548456    -0.11300
C260        C  0.01784115  0.59213550  0.14235707    -0.09700
H261        H  0.94697518  0.55066038  0.11871872     0.08200
H262        H  0.94517828  0.51960958  0.15918833     0.11900
H263        H  0.03621231  0.58105141  0.17842475     0.11600
H264        H  0.03844780  0.61201473  0.13768070     0.08200
C265        C  0.99471474  0.21443124  0.01516534    -0.10900
C266        C  0.97792926  0.19410887  0.49349555     0.06200
C267        C  0.96109606  0.20087998  0.47478687    -0.09700
C268        C  0.96127855  0.22750022  0.47752953    -0.11300
C269        C  0.97830710  0.24800557  0.49905618    -0.01100
C270        C  0.99493774  0.24105003  0.01788940    -0.10200
C271        C  0.97797466  0.16594132  0.49056102     0.06300
H272        H  0.94805606  0.18574169  0.45777209     0.08200
H273        H  0.94787708  0.23190745  0.46288927     0.11700
H274        H  0.00857733  0.25641935  0.03448388     0.11900
H275        H  0.00759257  0.20967859  0.03018467     0.08200
C276        C  0.00425278  0.16533663  0.49386293    -0.10900
C277        C  0.00415927  0.13870803  0.49261693    -0.10200
C278        C  0.97775780  0.11199433  0.48803836    -0.01100
C279        C  0.95159431  0.11269152  0.48388444    -0.11300
C280        C  0.95171119  0.13937167  0.48511304    -0.09700
H281        H  0.02492063  0.18549244  0.49760266     0.08200
H282        H  0.02471962  0.13901649  0.49593091     0.11900
H283        H  0.93082663  0.09251456  0.48060297     0.11600
H284        H  0.93106241  0.13907890  0.48274393     0.08200
C285        C  0.96362038  0.33002631  0.10669421    -0.10900
C286        C  0.98567918  0.35946695  0.11155779     0.06200
C287        C  0.00770067  0.37389054  0.09057843    -0.09700
C288        C  0.00699372  0.35966321  0.06482715    -0.11300
C289        C  0.98450712  0.33056955  0.05964269    -0.01100
C290        C  0.96318145  0.31562392  0.08104639    -0.10200
C291        C  0.98473715  0.37593711  0.13729412     0.06300
H292        H  0.02480203  0.39663443  0.09353922     0.08200
H293        H  0.02373361  0.37157239  0.04864770     0.11700
H294        H  0.94557047  0.29321475  0.07743515     0.11900
H295        H  0.94648656  0.31831121  0.12256098     0.08200
C296        C  0.95812639  0.37408722  0.14569289    -0.10900
C297        C  0.95773277  0.39218406  0.16768351    -0.10200
C298        C  0.98386179  0.41219531  0.18183456    -0.01100
C299        C  0.01025105  0.41326956  0.17439540    -0.11300
C300        C  0.01072038  0.39537206  0.15224197    -0.09700
H301        H  0.93783395  0.35958756  0.13438595     0.08200
H302        H  0.93721253  0.39118354  0.17314941     0.11900
H303        H  0.03059996  0.42861789  0.18516540     0.11600
H304        H  0.03148348  0.39708385  0.14642738     0.08200
C305        C  0.99943575  0.35507815  0.40443168    -0.10900
C306        C  0.98299503  0.36948687  0.40386366     0.06200
C307        C  0.96492215  0.36629422  0.42755454    -0.09700
C308        C  0.96369830  0.34952237  0.45147017    -0.11300
C309        C  0.98053439  0.33556033  0.45229589    -0.01100
C310        C  0.99813427  0.33819121  0.42836682    -0.10200
C311        C  0.98476709  0.38798080  0.37881921     0.06300
H312        H  0.95216544  0.37728903  0.42787768     0.08200
H313        H  0.94965974  0.34758727  0.46944971     0.11700
H314        H  0.01147080  0.32781363  0.42846888     0.11900
H315        H  0.01326701  0.35682674  0.38633425     0.08200
C316        C  0.01197753  0.40694717  0.36556877    -0.10900
C317        C  0.01357637  0.42469673  0.34231257    -0.10200
C318        C  0.98802183  0.42374400  0.33200750    -0.01100
C319        C  0.96087731  0.40487701  0.34504892    -0.11300
C320        C  0.95923876  0.38712393  0.36824810    -0.09700
H321        H  0.03206363  0.40839993  0.37348984     0.08200
H322        H  0.03470114  0.43931564  0.33245821     0.11900
H323        H  0.94098583  0.40392441  0.33720823     0.11600
H324        H  0.93793822  0.37250616  0.37775809     0.08200
C325        C  0.20721192  0.97058553  0.47380784    -0.10900
C326        C  0.20233819  0.99042942  0.48986525     0.06200
C327        C  0.22451493  0.01031461  0.00856597    -0.09700
C328        C  0.25107429  0.01038568  0.01118605    -0.11300
C329        C  0.25624400  0.99093683  0.49477752    -0.01100
C330        C  0.23400256  0.97099658  0.47605003    -0.10200
C331        C  0.17406582  0.99020125  0.48748315     0.06300
H332        H  0.22117310  0.02565524  0.02135780     0.08200
H333        H  0.26790538  0.02618366  0.02554613     0.11700
H334        H  0.23732584  0.95567288  0.46321191     0.11900
H335        H  0.19044194  0.95507818  0.45920563     0.08200
C336        C  0.17379782  0.01648918  0.48280419    -0.10900
C337        C  0.14716564  0.01649425  0.48200912    -0.10200
C338        C  0.12022827  0.99024935  0.48628460    -0.01100
C339        C  0.12056480  0.96385401  0.99032552    -0.11300
C340        C  0.14718543  0.96382769  0.99074235    -0.09700
H341        H  0.19426156  0.03708745  0.47999211     0.08200
H342        H  0.14777221  0.03723482  0.47895873     0.11900
H343        H  0.10029222  0.94325997  0.99390007     0.11600
H344        H  0.14684939  0.94331522  0.99457483     0.08200
C345        C  0.38620411  0.96331657  0.36299521    -0.10900
C346        C  0.39032400  0.99099557  0.37098733     0.06200
C347        C  0.41052792  0.01610601  0.35542704    -0.09700
C348        C  0.42627773  0.01356659  0.33240095    -0.11300
C349        C  0.42208191  0.98592234  0.32461135    -0.01100
C350        C  0.40198102  0.96081552  0.33998720    -0.10200
C351        C  0.37390610  0.99360358  0.39577352     0.06300
H352        H  0.41399215  0.03766034  0.36094272     0.08200
H353        H  0.44189527  0.03313655  0.32074271     0.11700
H354        H  0.39880355  0.93938924  0.33434207     0.11900
H355        H  0.37118883  0.94367016  0.37489659     0.08200
C356        C  0.34404917  0.97256256  0.39998214    -0.10900
C357        C  0.32892747  0.97411924  0.42409926    -0.10200
C358        C  0.34342786  0.99660489  0.44459771    -0.01100
C359        C  0.37306934  0.01806493  0.44009071    -0.11300
C360        C  0.38814368  0.01664741  0.41585731    -0.09700
H361        H  0.33241093  0.95479172  0.38466449     0.08200
H362        H  0.30613581  0.95723135  0.42720457     0.11900
H363        H  0.38465351  0.03572925  0.45554099     0.11600
H364        H  0.41117904  0.03306787  0.41330270     0.08200
C365        C  0.38691203  0.01834906  0.08089172    -0.10900
C366        C  0.37118381  0.99830057  0.10311935     0.06200
C367        C  0.34057280  0.97979381  0.09997915    -0.09700
C368        C  0.32620175  0.98071124  0.07483046    -0.11300
C369        C  0.34214512  0.00004838  0.05220285    -0.01100
C370        C  0.37258269  0.01922560  0.05578290    -0.10200
C371        C  0.38702946  0.99584385  0.12870106     0.06300
H372        H  0.32777938  0.96433604  0.11684187     0.08200
H373        H  0.30279123  0.96550313  0.07265134     0.11700
H374        H  0.38545521  0.03461843  0.03889802     0.11900
H375        H  0.41053338  0.03271211  0.08244979     0.08200
C376        C  0.37981454  0.96803225  0.13976909    -0.10900
C377        C  0.39637207  0.96561617  0.16219394    -0.10200
C378        C  0.42037540  0.99094079  0.17394097    -0.01100
C379        C  0.42714129  0.01872565  0.16361822    -0.11300
C380        C  0.41061212  0.02117978  0.14122659    -0.09700
H381        H  0.36204126  0.94808719  0.13040077     0.08200
H382        H  0.39096286  0.94400185  0.16992440     0.11900
H383        H  0.44555750  0.03846522  0.17258656     0.11600
H384        H  0.41646813  0.04291161  0.13349924     0.08200
C385        C  0.74414219  0.95265784  0.49048650    -0.10900
C386        C  0.76468833  0.97224776  0.01065955     0.06200
C387        C  0.75830737  0.99142381  0.02591041    -0.09700
C388        C  0.73162045  0.99064745  0.02151429    -0.11300
C389        C  0.71084055  0.97087093  0.00155698    -0.01100
C390        C  0.71754364  0.95214555  0.48578789    -0.10200
C391        C  0.79314122  0.97334837  0.01507456     0.06300
H392        H  0.77385851  0.00677049  0.04148893     0.08200
H393        H  0.72718496  0.00554965  0.03377958     0.11700
H394        H  0.70189551  0.93658474  0.47041796     0.11900
H395        H  0.74881551  0.93792878  0.47820677     0.08200
C396        C  0.79398810  0.94754919  0.52084648    -0.10900
C397        C  0.82097035  0.94833967  0.52266842    -0.10200
C398        C  0.84763144  0.97490740  0.01834926    -0.01100
C399        C  0.84668059  0.00091210  0.01381233    -0.11300
C400        C  0.81971635  0.00014636  0.01236852    -0.09700
H401        H  0.77373007  0.92670484  0.52342885     0.08200
H402        H  0.82085834  0.92791734  0.52631538     0.11900
H403        H  0.86673378  0.02174304  0.01038479     0.11600
H404        H  0.81956853  0.02032080  0.00792545     0.08200
C405        C  0.55775091  0.94339090  0.35293869    -0.10900
C406        C  0.58134934  0.96854404  0.36573943     0.06200
C407        C  0.58847226  0.99651148  0.35513151    -0.09700
C408        C  0.57211518  0.99922447  0.33268078    -0.11300
C409        C  0.54830313  0.97405255  0.32050035    -0.01100
C410        C  0.54135902  0.94615411  0.33060526    -0.10200
C411        C  0.59750392  0.96571998  0.39092983     0.06300
H412        H  0.60610908  0.01636263  0.36477009     0.08200
H413        H  0.57755698  0.02093870  0.32523966     0.11700
H414        H  0.52297658  0.92653787  0.32141038     0.11900
H415        H  0.55185897  0.92152503  0.36024599     0.08200
C416        C  0.58225477  0.94433686  0.41231251    -0.10900
C417        C  0.59674570  0.94320844  0.43718388    -0.10200
C418        C  0.62685375  0.96337048  0.44133877    -0.01100
C419        C  0.64247221  0.98393907  0.41951633    -0.11300
C420        C  0.62793788  0.98514973  0.39459659    -0.09700
H421        H  0.55880482  0.92919589  0.41045387     0.08200
H422        H  0.58421020  0.92702940  0.45363373     0.11900
H423        H  0.66564176  0.99985708  0.42227028     0.11600
H424        H  0.64046734  0.00158341  0.37837140     0.08200
C425        C  0.55587777  0.94891310  0.13642437    -0.10900
C426        C  0.57884800  0.97437703  0.12354190     0.06200
C427        C  0.58589360  0.00216169  0.13450364    -0.09700
C428        C  0.56986874  0.00440048  0.15746963    -0.11300
C429        C  0.54670284  0.97892607  0.16984489    -0.01100
C430        C  0.53994227  0.95118423  0.15940062    -0.10200
C431        C  0.59465225  0.97191903  0.09813204     0.06300
H432        H  0.60325065  0.02215351  0.12481954     0.08200
H433        H  0.57521588  0.02595251  0.16535568     0.11700
H434        H  0.52211485  0.93135569  0.16886569     0.11900
H435        H  0.55022629  0.92722765  0.12870265     0.08200
C436        C  0.62530353  0.99014000  0.09540693    -0.10900
C437        C  0.63989304  0.98821051  0.07099929    -0.10200
C438        C  0.62408695  0.96813359  0.04877636    -0.01100
C439        C  0.59351966  0.94967670  0.05170646    -0.11300
C440        C  0.57896797  0.95155918  0.07609421    -0.09700
H441        H  0.63799175  0.00584460  0.11217334     0.08200
H442        H  0.66344618  0.00288346  0.06920983     0.11900
H443        H  0.58082795  0.93378529  0.03507367     0.11600
H444        H  0.55529857  0.93745321  0.07743036     0.08200
C445        C  0.76853813  0.74070507  0.47752792    -0.10900
C446        C  0.77352017  0.76702466  0.49050778     0.06200
C447        C  0.75129229  0.76649930  0.00782135    -0.09700
C448        C  0.72462401  0.74032647  0.01189483    -0.11300
C449        C  0.71959920  0.71418291  0.49865793    -0.01100
C450        C  0.74183027  0.71457022  0.48153158    -0.10200
C451        C  0.80199676  0.79480364  0.48656319     0.06300
H452        H  0.75460701  0.78627561  0.01852184     0.08200
H453        H  0.70768456  0.74061604  0.02496528     0.11700
H454        H  0.73847111  0.69461799  0.47116434     0.11900
H455        H  0.78510110  0.74038704  0.46388889     0.08200
C456        C  0.82865326  0.79460529  0.48652159    -0.10900
C457        C  0.85556028  0.82097797  0.48518929    -0.10200
C458        C  0.85638294  0.84812229  0.48412380    -0.01100
C459        C  0.82974111  0.84826875  0.48292289    -0.11300
C460        C  0.80284508  0.82188951  0.48398952    -0.09700
H461        H  0.82879882  0.77416087  0.48876842     0.08200
H462        H  0.87571420  0.82014469  0.48642347     0.11900
H463        H  0.82966306  0.86883452  0.48194369     0.11600
H464        H  0.78268998  0.82274171  0.48328574     0.08200
C465        C  0.61811596  0.62913821  0.40158156    -0.10900
C466        C  0.60026884  0.59825807  0.40204797     0.06200
C467        C  0.59887520  0.58318080  0.42766183    -0.09700
C468        C  0.61479697  0.59852358  0.45210878    -0.11300
C469        C  0.63221581  0.62940409  0.45176741    -0.01100
C470        C  0.63377366  0.64452212  0.42617171    -0.10200
C471        C  0.58274264  0.58180814  0.37620651     0.06300
H472        H  0.58503445  0.55948640  0.42907934     0.08200
H473        H  0.61340640  0.58613797  0.47132759     0.11700
H474        H  0.64667747  0.66833185  0.42525837     0.11900
H475        H  0.62009084  0.64149781  0.38217968     0.08200
C476        C  0.57008292  0.59393449  0.35797178    -0.10900
C477        C  0.55256737  0.57788873  0.33447772    -0.10200
C478        C  0.54725142  0.54939471  0.32886164    -0.01100
C479        C  0.56008331  0.53733565  0.34665598    -0.11300
C480        C  0.57780735  0.55342693  0.36996947    -0.09700
H481        H  0.57299493  0.61549735  0.36227349     0.08200
H482        H  0.54268688  0.58743265  0.32097100     0.11900
H483        H  0.55625436  0.51538088  0.34250602     0.11600
H484        H  0.58766439  0.54359337  0.38307032     0.08200
C485        C  0.63313855  0.62000969  0.10581423    -0.10900
C486        C  0.60328646  0.61158613  0.10897879     0.06200
C487        C  0.58968294  0.61944328  0.08740659    -0.09700
C488        C  0.60512187  0.63400388  0.06252301    -0.11300
C489        C  0.63449768  0.64116620  0.05878696    -0.01100
C490        C  0.64866976  0.63482462  0.08097064    -0.10200
C491        C  0.58580486  0.59300814  0.13365442     0.06300
H492        H  0.56668543  0.61309692  0.08911518     0.08200
H493        H  0.59383461  0.63883468  0.04569331     0.11700
H494        H  0.67128418  0.64004325  0.07845589     0.11900
H495        H  0.64427274  0.61456801  0.12228470     0.08200
C496        C  0.58889135  0.56909715  0.14258154    -0.10900
C497        C  0.57115807  0.55035477  0.16454390    -0.10200
C498        C  0.55017228  0.55528607  0.17799927    -0.01100
C499        C  0.54723217  0.57930159  0.16954628    -0.11300
C500        C  0.56487055  0.59800290  0.14746791    -0.09700
H501        H  0.60441706  0.56436743  0.13198890     0.08200
H502        H  0.57342651  0.53171155  0.17076263     0.11900
H503        H  0.53096747  0.58322152  0.17973759     0.11600
H504        H  0.56210385  0.61631222  0.14113182     0.08200
C505        C  0.19364170  0.22535511  0.49355737    -0.10900
C506        C  0.19353049  0.20294735  0.01034696     0.06200
C507        C  0.22013095  0.20787816  0.02256857    -0.09700
C508        C  0.24611920  0.23474295  0.01855004    -0.11300
C509        C  0.24613858  0.25719343  0.00205776    -0.01100
C510        C  0.21974301  0.25216015  0.48931078    -0.06300
C511        C  0.16591089  0.17435349  0.01466790     0.06300
H512        H  0.22074456  0.19114105  0.03571081     0.08200
H513        H  0.26624975  0.23808430  0.02848060     0.11700
H514        H  0.21918416  0.26923357  0.47668232     0.11900
H515        H  0.17357099  0.22205792  0.48353706     0.08200
C516        C  0.13906283  0.17336027  0.01980548    -0.10900
C517        C  0.11283851  0.14632618  0.02211107    -0.10200
C518        C  0.11286833  0.11967966  0.01915549    -0.01100
C519        C  0.13990136  0.12072862  0.01511123    -0.11300
C520        C  0.16610037  0.14773745  0.01294304    -0.09700
H521        H  0.13829734  0.19351523  0.02171000     0.08200
H522        H  0.09241290  0.14634412  0.02513967     0.11900
H523        H  0.14073951  0.10065972  0.01262068     0.11600
H524        H  0.18638863  0.14775874  0.00880046     0.08200
C525        C  0.34413754  0.38647211  0.41268897    -0.10900
C526        C  0.35089094  0.37157528  0.39154158     0.06200
C527        C  0.34105600  0.34146586  0.39551096    -0.09700
C528        C  0.32593493  0.32691425  0.42064160    -0.11300
C529        C  0.32063380  0.34226155  0.44243548    -0.01100
C530        C  0.32934147  0.37201046  0.43795786    -0.10200
C531        C  0.37016332  0.38797015  0.36672145     0.06300
H532        H  0.34566693  0.32934266  0.37944456     0.08200
H533        H  0.31959678  0.30402178  0.42365259     0.11700
H534        H  0.32537716  0.38427262  0.45440795     0.11900
H535        H  0.35156633  0.40969481  0.41035804     0.08200
C536        C  0.36665669  0.40937830  0.35183516    -0.10900
C537        C  0.38633020  0.42619160  0.32991327    -0.10200
C538        C  0.40990582  0.42200943  0.32273318    -0.01100
C539        C  0.41321287  0.40041704  0.33715509    -0.11300
C540        C  0.39347388  0.38347385  0.35887962    -0.09700
H541        H  0.34882264  0.41321032  0.35728528     0.08200
H542        H  0.38353307  0.44281655  0.31889554     0.11900
H543        H  0.43138761  0.39705269  0.33187794     0.11600
H544        H  0.39703840  0.36750580  0.37022769     0.08200
C545        C  0.37891459  0.37414168  0.07361030    -0.10900
C546        C  0.36481118  0.37223155  0.09995793     0.06200
C547        C  0.33388138  0.35559544  0.10106685    -0.09700
C548        C  0.31750181  0.34128113  0.07632595    -0.11300
C549        C  0.33169690  0.34335362  0.04991151    -0.01100
C550        C  0.36261825  0.35980631  0.04899300    -0.10200
C551        C  0.38255530  0.38790989  0.12590899     0.06300
H552        H  0.32236288  0.35350520  0.12109901     0.08200
H553        H  0.29371246  0.32900108  0.07779537     0.11700
H554        H  0.37435721  0.36146946  0.02923277     0.11900
H555        H  0.40266378  0.38707843  0.07189231     0.08200
C556        C  0.40934736  0.38883888  0.13153752    -0.10900
C557        C  0.42713124  0.40517550  0.15473939    -0.10200
C558        C  0.41840484  0.42075796  0.17286333    -0.01100
C559        C  0.39140405  0.41939060  0.16782077    -0.11300
C560        C  0.37359444  0.40308220  0.14455793    -0.09700
H561        H  0.41665103  0.37702859  0.11787163     0.08200
H562        H  0.44789797  0.40599972  0.15837747     0.11900
H563        H  0.38447766  0.43148914  0.18155031     0.11600
H564        H  0.35328036  0.40309108  0.14064325     0.08200
C565        C  0.27328362  0.28637450  0.49964968     0.03100
C566        C  0.28918915  0.30058903  0.52474003    -0.13100
C567        C  0.31455062  0.32859889  0.52331225     0.00600
C568        C  0.32386517  0.34229109  0.99621481    -0.11600
C569        C  0.30867610  0.32813093  0.97081682     0.03100
C570        C  0.28324622  0.30016867  0.97269393    -0.11000
H571        H  0.28175022  0.28968768  0.54542726     0.08700
H572        H  0.34333110  0.36393125  0.99471817     0.06200
H573        H  0.27135709  0.28910691  0.95321338     0.06000
C574        C  0.69066849  0.68692320  0.50138742     0.03100
C575        C  0.67708623  0.67731446  0.52848529    -0.13100
C576        C  0.64903249  0.65214605  0.53056277     0.00600
C577        C  0.63465901  0.63667617  0.00540131    -0.11600
C578        C  0.64801462  0.64578400  0.97822433     0.03100
C579        C  0.67615442  0.67088460  0.97646458    -0.11000
H580        H  0.68822616  0.68942450  0.54784742     0.08700
H581        H  0.61285174  0.61747329  0.00709868     0.06200
H582        H  0.68671941  0.67822037  0.95562277     0.06000
N583        N  0.48505221  0.48581550  0.70616007    -0.36700
N584        N  0.52140675  0.52622113  0.75226019    -0.57200
N585        N  0.48087524  0.48543620  0.79491339    -0.36700
N586        N  0.44249055  0.44729137  0.74884727    -0.57200
C587        C  0.50397805  0.50937534  0.69015842     0.26900
C588        C  0.46305290  0.46702123  0.68840474     0.26900
C589        C  0.49903678  0.50821996  0.81221045     0.26900
C590        C  0.45612107  0.46800585  0.81020155     0.26900
C591        C  0.53861417  0.54070016  0.72939635     0.35500
C592        C  0.53757867  0.53925448  0.77617677     0.35500
C593        C  0.43022629  0.43031285  0.72521203     0.35500
C594        C  0.42737205  0.43085368  0.77189271     0.35500
C595        C  0.49432857  0.50505722  0.66170582    -0.21900
C596        C  0.46857548  0.47841886  0.66060788    -0.21900
C597        C  0.48591398  0.50497806  0.83896386    -0.21900
C598        C  0.45882792  0.47971364  0.83766890    -0.21900
C599        C  0.56557710  0.56348046  0.73884314    -0.23000
C600        C  0.56502167  0.56240214  0.76846035    -0.23000
C601        C  0.40714301  0.40296962  0.73328454    -0.23000
C602        C  0.40527474  0.40334315  0.76284102    -0.23000
C603        C  0.53023280  0.53432725  0.70006619    -0.18300
C604        C  0.43820758  0.43971953  0.69632884    -0.18300
C605        C  0.43188019  0.44092252  0.80079629    -0.18300
C606        C  0.52746058  0.53153588  0.80490070    -0.18300
H607        H  0.50468939  0.51963339  0.64353560     0.14600
H608        H  0.45531782  0.46870437  0.64147065     0.14600
H609        H  0.49484851  0.51943210  0.85748005     0.14600
H610        H  0.44304415  0.47085910  0.85513606     0.14600
H611        H  0.58383327  0.57916901  0.72576206     0.12800
H612        H  0.58271504  0.57719989  0.78264678     0.12800
H613        H  0.39284545  0.38479029  0.71931011     0.12800
H614        H  0.38922210  0.38551527  0.77610181     0.12800
H615        H  0.48826662  0.48171246  0.72730870     0.26100
H616        H  0.48646219  0.48040371  0.77512906     0.26100
C617        C  0.68167425  0.96878617  0.49872910     0.03100
C618        C  0.66667783  0.96878481  0.52383724    -0.13100
C619        C  0.63925352  0.96708404  0.52219558     0.00600
C620        C  0.62652374  0.96494323  0.49503246    -0.11600
C621        C  0.64089852  0.96468522  0.96959755     0.03100
C622        C  0.66863511  0.96673130  0.97152856    -0.11000
H623        H  0.67618516  0.96961606  0.54484368     0.08700
H624        H  0.60569508  0.96445460  0.49359829     0.06200
H625        H  0.68004239  0.96687994  0.95199216     0.06000
C626        C  0.28530814  0.99257833  0.49620443     0.03100
C627        C  0.29975660  0.99276585  0.97059038    -0.13100
C628        C  0.32819242  0.99665847  0.97145482     0.00600
C629        C  0.34197918  0.99976477  0.49821591    -0.11600
C630        C  0.32765568  0.99872280  0.52414920     0.03100
C631        C  0.29930910  0.99527696  0.52295076    -0.11000
H632        H  0.28932539  0.99092052  0.94988018     0.08700
H633        H  0.36351142  0.00172527  0.49882402     0.06200
H634        H  0.28817424  0.99479482  0.54280004     0.06000
N635        N  0.48529646  0.98655266  0.70295395    -0.36700
N636        N  0.52273064  0.98014356  0.74605843    -0.57200
N637        N  0.48316604  0.97788161  0.79137952    -0.36700
N638        N  0.44603803  0.98484745  0.74831069    -0.57200
C639        C  0.50357829  0.98277179  0.68515029     0.26900
C640        C  0.46366320  0.98590568  0.68641425     0.26900
C641        C  0.50488332  0.97872260  0.80793409     0.26900
C642        C  0.46479262  0.98148673  0.80920661     0.26900
C643        C  0.53742114  0.98022612  0.72211181     0.35500
C644        C  0.53729677  0.97746778  0.76886006     0.35500
C645        C  0.43179119  0.98808226  0.72554243     0.35500
C646        C  0.43147681  0.98499253  0.77226924     0.35500
C647        C  0.49385690  0.98053787  0.65686476    -0.21900
C648        C  0.46880632  0.98254406  0.65766080    -0.21900
C649        C  0.49964559  0.98192265  0.83669511    -0.21900
C650        C  0.47449744  0.98370644  0.83749726    -0.21900
C651        C  0.56164793  0.97779852  0.72978025    -0.23000
C652        C  0.56156711  0.97606397  0.75936156    -0.23000
C653        C  0.40788961  0.99013136  0.73507858    -0.23000
C654        C  0.40763602  0.98809639  0.76463362    -0.23000
C655        C  0.52884112  0.98123840  0.69332443    -0.18300
C656        C  0.43941433  0.98843394  0.69618198    -0.18300
C657        C  0.43977390  0.98344729  0.80104668    -0.18300
C658        C  0.52943359  0.97673769  0.79819828    -0.18300
H659        H  0.50365505  0.97755709  0.63754345     0.14600
H660        H  0.45573782  0.98139011  0.63908567     0.14600
H661        H  0.51281810  0.98330577  0.85526389     0.14600
H662        H  0.46477224  0.98679095  0.85681733     0.14600
H663        H  0.57759036  0.97704851  0.71554861     0.12800
H664        H  0.57755222  0.97397411  0.77236361     0.12800
H665        H  0.39219270  0.99273308  0.72211343     0.12800
H666        H  0.39180760  0.98905812  0.77886077     0.12800
H667        H  0.48864690  0.99147380  0.72473989     0.26100
H668        H  0.47992638  0.97313280  0.76955381     0.26100
C669        C  0.97914870  0.27671522  0.50154568     0.03100
C670        C  0.97925770  0.29205047  0.97653903    -0.13100
C671        C  0.98055167  0.31936418  0.97858869     0.00600
C672        C  0.98234422  0.33162832  0.50595686    -0.11600
C673        C  0.98235187  0.31680913  0.53112574     0.03100
C674        C  0.98037027  0.28921088  0.52884558    -0.11000
H675        H  0.97848383  0.28284780  0.95540341     0.08700
H676        H  0.98387920  0.35293502  0.50775107     0.06200
H677        H  0.98000711  0.27765602  0.54836021     0.06000
C678        C  0.99938721  0.69496127  0.50121768     0.03100
C679        C  0.99838326  0.67919597  0.52625902    -0.13100
C680        C  0.00077280  0.65373162  0.52442794     0.00600
C681        C  0.00481698  0.64452052  0.49718151    -0.11600
C682        C  0.00553376  0.65963813  0.97191008     0.03100
C683        C  0.00265964  0.68476055  0.97408132    -0.11000
H684        H  0.99556226  0.68665559  0.54718263     0.08700
H685        H  0.00694583  0.62510406  0.49551769     0.06200
H686        H  0.00292246  0.69631706  0.95460173     0.06000
N687        N  0.98456837  0.48081217  0.70750117    -0.36700
N688        N  0.98694286  0.44528450  0.75471882    -0.57200
N689        N  0.99317458  0.49031840  0.79586329    -0.36700
N690        N  0.99393592  0.52728430  0.74866760    -0.57200
C691        C  0.98785224  0.46052489  0.69238412     0.26900
C692        C  0.99025743  0.50318177  0.68917543     0.26900
C693        C  0.99584283  0.47167276  0.81411610     0.26900
C694        C  0.00012981  0.51515383  0.81082461     0.26900
C695        C  0.98200274  0.42635906  0.73277168     0.35500
C696        C  0.98458927  0.43055701  0.77943098     0.35500
C697        C  0.98956133  0.53896508  0.72446107     0.35500
C698        C  0.99412800  0.54400273  0.77100825     0.35500
C699        C  0.99495325  0.46983154  0.66397971    -0.21900
C700        C  0.99645543  0.49665770  0.66196399    -0.21900
C701        C  0.00430104  0.48471528  0.84115162    -0.21900
C702        C  0.00706128  0.51209945  0.83906534    -0.21900
C703        C  0.97684759  0.39955684  0.74354867    -0.23000
C704        C  0.97839439  0.40217594  0.77309433    -0.23000
C705        C  0.98730616  0.56343926  0.73142600    -0.23000
C706        C  0.99029383  0.56667971  0.76087479    -0.23000
C707        C  0.98403717  0.43350068  0.70310986    -0.18300
C708        C  0.98951225  0.52913884  0.69597893    -0.18300
C709        C  0.99864553  0.53976396  0.80035886    -0.18300
C710        C  0.98952105  0.44267679  0.80759796    -0.18300
H711        H  0.99886843  0.45857452  0.64647009     0.14600
H712        H  0.00181832  0.50998930  0.64264495     0.14600
H713        H  0.00782016  0.47538399  0.86054532     0.14600
H714        H  0.01302639  0.52775850  0.85657257     0.14600
H715        H  0.97279007  0.38025811  0.73139185     0.12800
H716        H  0.97580284  0.38526554  0.78815002     0.12800
H717        H  0.98412649  0.57767670  0.71679233     0.12800
H718        H  0.98979196  0.58384095  0.77336997     0.12800
H719        H  0.97624315  0.47833706  0.72823774     0.26100
H720        H  0.98419150  0.48513913  0.77539006     0.26100
O721        O  0.94893683  0.93235958  0.52259448    -0.88400
C722        C  0.01092810  0.95812798  0.95893899     0.87600
Mg723      Mg  0.91341555  0.94146811  0.52060107     1.58100
O724        O  0.03623916  0.99962019  0.52314362    -0.88100
O725        O  0.98572997  0.94029465  0.55073492    -0.75500
C726        C  0.97708948  0.08350225  0.99056151     0.92700
O727        O  0.94119411  0.93874082  0.95450018    -0.75300
O728        O  0.95294872  0.05954391  0.98663251    -0.82800
Mg729      Mg  0.95569615  0.91322726  0.98417957     1.58000
C730        C  0.08476602  0.09130380  0.51672663     0.92600
O731        O  0.96796448  0.88255593  0.50833570    -0.81000
H732        H  0.04438316  0.00240369  0.56556157    -0.06400
C733        C  0.01031844  0.03560654  0.95935941     0.87500
O734        O  0.93801660  0.98140424  0.55080447    -0.75600
O735        O  0.00048317  0.94865593  0.98307494    -0.88300
O736        O  0.08551255  0.06845306  0.50870303    -0.81100
C737        C  0.09238903  0.99087510  0.98941785     0.92700
C738        C  0.99178823  0.88323343  0.51521364     0.92600
Mg739      Mg  0.01324418  0.05339192  0.52214658     1.58000
O740        O  0.00049741  0.08373587  0.99829455    -0.81000
O741        O  0.02830327  0.02817531  0.55150682    -0.75300
O742        O  0.06921999  0.96744626  0.99740928    -0.81100
O743        O  0.90864048  0.87590558  0.98507740    -0.82800
O744        O  0.89901096  0.99873884  0.50812514    -0.81200
C745        C  0.03701120  0.00989266  0.54733980     0.87000
O746        O  0.96813909  0.01796127  0.52317522    -0.88300
O747        O  0.01984728  0.03450842  0.98344894    -0.88400
O748        O  0.98339047  0.02756284  0.95538065    -0.75500
Mg749      Mg  0.02608261  0.95471921  0.52144856     1.58000
O750        O  0.09257274  0.01500571  0.98572510    -0.82800
H751        H  0.94418309  0.92559609  0.56523785    -0.06600
O752        O  0.93320411  0.96753647  0.98248573    -0.88100
H753        H  0.92608293  0.96515057  0.93987660    -0.06400
H754        H  0.96444715  0.02309908  0.56547823    -0.06600
C755        C  0.93287357  0.95738400  0.95832477     0.87000
C756        C  0.95876151  0.93215243  0.54680891     0.87600
C757        C  0.95712946  0.00836382  0.54711890     0.87600
H758        H  0.02511374  0.04287494  0.94107924    -0.06500
O759        O  0.02985075  0.98506405  0.95493456    -0.75600
Mg760      Mg  0.94276540  0.01225221  0.98447309     1.58000
H761        H  0.00314986  0.94329412  0.94065856    -0.06600
C762        C  0.88460795  0.87597280  0.98774143     0.92600
O763        O  0.87591134  0.95095352  0.51874204    -0.82800
C764        C  0.87582447  0.97495644  0.51546735     0.92700
O765        O  0.01566964  0.90741630  0.51918084    -0.82800
Mg766      Mg  0.05530046  0.02520453  0.98456085     1.58200
O767        O  0.88400604  0.89900640  0.99522855    -0.81100
O768        O  0.06056910  0.09079558  0.52081746    -0.82800
C769        C  0.96640214  0.80156948  0.01318607    -0.10900
C770        C  0.99336021  0.80205895  0.51168767     0.06200
C771        C  0.01966463  0.82932961  0.51307258    -0.09700
C772        C  0.01906896  0.85554594  0.51559447    -0.11300
C773        C  0.99213197  0.85517621  0.51646522    -0.01100
C774        C  0.96578014  0.82785493  0.01535304    -0.10200
C775        C  0.99419895  0.77432249  0.50846149     0.06300
H776        H  0.04076774  0.83037797  0.51221645     0.08200
H777        H  0.03978130  0.87619356  0.51597935     0.11700
H778        H  0.94466131  0.82680446  0.01561226     0.11900
H779        H  0.94578702  0.78088520  0.01189260     0.08200
C780        C  0.97590776  0.74946504  0.02527335    -0.10900
C781        C  0.97745242  0.72369566  0.02285646    -0.10200
C782        C  0.99717014  0.72211260  0.50339932    -0.01100
C783        C  0.01510522  0.74687626  0.48624451    -0.11300
C784        C  0.01369006  0.77267792  0.48880000    -0.09700
H785        H  0.96076520  0.75013747  0.04068629     0.08200
H786        H  0.96305102  0.70491748  0.03611712     0.11900
H787        H  0.03070165  0.74652461  0.47121612     0.11600
H788        H  0.02783009  0.79138349  0.47532139     0.08200
C789        C  0.97810621  0.57794209  0.85733727    -0.10900
C790        C  0.00583177  0.60079417  0.86640802     0.06200
C791        C  0.03120719  0.60443241  0.85237897    -0.09700
C792        C  0.02888673  0.58522074  0.83019168    -0.11300
C793        C  0.00119169  0.56196822  0.82185321    -0.01100
C794        C  0.97583578  0.55863763  0.83535407    -0.10200
C795        C  0.00815761  0.61922587  0.89178685     0.06300
H796        H  0.05283127  0.62191044  0.85883728     0.08200
H797        H  0.04867613  0.58798868  0.82002013     0.11700
H798        H  0.95433645  0.54063394  0.82930195     0.11900
H799        H  0.95822412  0.57429877  0.86802236     0.08200
C800        C  0.98866427  0.63001013  0.89521461    -0.10900
C801        C  0.98876240  0.64447868  0.92068493    -0.10200
C802        C  0.00810783  0.64811540  0.94337343    -0.01100
C803        C  0.02839645  0.63841223  0.93943068    -0.11300
C804        C  0.02850857  0.62424860  0.91389122    -0.09700
H805        H  0.97291368  0.62667146  0.87841899     0.08200
H806        H  0.97280641  0.65161226  0.92316505     0.11900
H807        H  0.04374904  0.64117727  0.95644602     0.11600
H808        H  0.04365277  0.61603510  0.91197792     0.08200
C809        C  0.98105207  0.58831873  0.57340749    -0.10900
C810        C  0.99442658  0.60195859  0.59962859     0.06200
C811        C  0.00959144  0.63292198  0.60118587    -0.09700
C812        C  0.01145688  0.64981844  0.57697577    -0.11300
C813        C  0.99831407  0.63611159  0.55063579    -0.01100
C814        C  0.98291981  0.60514087  0.54928501    -0.10200
C815        C  0.99287783  0.58380125  0.62497943     0.06300
H816        H  0.01991316  0.64407458  0.62117403     0.08200
H817        H  0.02364058  0.67360356  0.57873859     0.11700
H818        H  0.97209660  0.59379475  0.52953610     0.11900
H819        H  0.96948117  0.56455364  0.57137875     0.08200
C820        C  0.96665458  0.55749297  0.63147253    -0.10900
C821        C  0.96552264  0.53980098  0.65459625    -0.10200
C822        C  0.99053861  0.54813003  0.67168528    -0.01100
C823        C  0.01666586  0.57441980  0.66548642    -0.11300
C824        C  0.01783503  0.59212432  0.64235892    -0.09700
H825        H  0.94696963  0.55065466  0.61871732     0.08200
H826        H  0.94516735  0.51960204  0.65918782     0.11900
H827        H  0.03620230  0.58103707  0.67842773     0.11600
H828        H  0.03844252  0.61200297  0.63768328     0.08200
C829        C  0.99473862  0.21445241  0.51516620    -0.10900
C830        C  0.97791991  0.19409721  0.99348241     0.06200
C831        C  0.96109656  0.20087442  0.97476659    -0.09700
C832        C  0.96127346  0.22749099  0.97751529    -0.11300
C833        C  0.97828849  0.24798737  0.99905354    -0.01100
C834        C  0.99496544  0.24107395  0.51788562    -0.10200
C835        C  0.97796788  0.16593179  0.99054473     0.06300
H836        H  0.94806805  0.18574368  0.95774224     0.08200
H837        H  0.94787862  0.23190239  0.96287005     0.11700
H838        H  0.00861494  0.25644989  0.53447120     0.11900
H839        H  0.00762509  0.20970506  0.53017932     0.08200
C840        C  0.00424240  0.16532497  0.99387161    -0.10900
C841        C  0.00414879  0.13869674  0.99262772    -0.10200
C842        C  0.97775101  0.11198584  0.98802543    -0.01100
C843        C  0.95159228  0.11268554  0.98384488    -0.11300
C844        C  0.95170916  0.13936542  0.98507191    -0.09700
H845        H  0.02490719  0.18547844  0.99763030     0.08200
H846        H  0.02470543  0.13900302  0.99596279     0.11900
H847        H  0.93082750  0.09251047  0.98054405     0.11600
H848        H  0.93106289  0.13907415  0.98268328     0.08200
C849        C  0.96368028  0.33004829  0.60670659    -0.10900
C850        C  0.98572225  0.35949828  0.61155732     0.06200
C851        C  0.00772102  0.37393391  0.59055967    -0.09700
C852        C  0.00700748  0.35970769  0.56480485    -0.11300
C853        C  0.98453735  0.33060298  0.55963433    -0.01100
C854        C  0.96323512  0.31564761  0.58105526    -0.10200
C855        C  0.98478244  0.37596326  0.63730010     0.06300
H856        H  0.02480888  0.39668486  0.59351008     0.08200
H857        H  0.02373042  0.37162532  0.54861327     0.11700
H858        H  0.94563678  0.29323008  0.57745623     0.11900
H859        H  0.94656399  0.31832357  0.62258690     0.08200
C860        C  0.95816453  0.37408242  0.64572555    -0.10900
C861        C  0.95776709  0.39217293  0.66772097    -0.10200
C862        C  0.98389982  0.41220918  0.68185087    -0.01100
C863        C  0.01029785  0.41331364  0.67438671    -0.11300
C864        C  0.01077068  0.39542243  0.65222805    -0.09700
H865        H  0.93786742  0.35956352  0.63443501     0.08200
H866        H  0.93723992  0.39114882  0.67320584     0.11900
H867        H  0.03064987  0.42868151  0.68514004     0.11600
H868        H  0.03153978  0.39715837  0.64639344     0.08200
C869        C  0.99941464  0.35505414  0.90443068    -0.10900
C870        C  0.98299962  0.36948994  0.90387625     0.06200
C871        C  0.96494888  0.36632090  0.92757918    -0.09700
C872        C  0.96372042  0.34954453  0.95149233    -0.11300
C873        C  0.98053201  0.33555588  0.95230565    -0.01100
C874        C  0.99811029  0.33816421  0.92836465    -0.10200
C875        C  0.98477330  0.38798633  0.87883308     0.06300
H876        H  0.95221215  0.37733652  0.92791294     0.08200
H877        H  0.94969638  0.34762640  0.96947916     0.11700
H878        H  0.01142833  0.32776656  0.92845550     0.11900
H879        H  0.01322804  0.35678406  0.88632372     0.08200
C880        C  0.01197971  0.40693168  0.86556477    -0.10900
C881        C  0.01357947  0.42468530  0.84231137    -0.10200
C882        C  0.98802967  0.42375644  0.83202643    -0.01100
C883        C  0.96088962  0.40491076  0.84508619    -0.11300
C884        C  0.95925019  0.38715433  0.86828243    -0.09700
H885        H  0.03206219  0.40836487  0.87346965     0.08200
H886        H  0.03470102  0.43928719  0.83244247     0.11900
H887        H  0.94100171  0.40397615  0.83726099     0.11600
H888        H  0.93795233  0.37255295  0.87780603     0.08200
C889        C  0.20721057  0.97059631  0.97378152    -0.10900
C890        C  0.20233969  0.99044212  0.98983894     0.06200
C891        C  0.22451627  0.01031013  0.50858493    -0.09700
C892        C  0.25108194  0.01039252  0.51119653    -0.11300
C893        C  0.25623288  0.99092710  0.99476819    -0.01100
C894        C  0.23399469  0.97099579  0.97603262    -0.10200
C895        C  0.17406877  0.99021661  0.98745636     0.06300
H896        H  0.22117248  0.02564973  0.52137636     0.08200
H897        H  0.26791461  0.02619652  0.52555140     0.11700
H898        H  0.23731596  0.95567089  0.96319425     0.11900
H899        H  0.19044275  0.95509518  0.95917371     0.08200
C900        C  0.17380083  0.01650628  0.98278910    -0.10900
C901        C  0.14716795  0.01651073  0.98199816    -0.10200
C902        C  0.12023057  0.99026349  0.98626686    -0.01100
C903        C  0.12056194  0.96384088  0.49035675    -0.11300
C904        C  0.14718250  0.96381385  0.49077797    -0.09700
H905        H  0.19426472  0.03710595  0.97998409     0.08200
H906        H  0.14777395  0.03725223  0.97895797     0.11900
H907        H  0.10028922  0.94324868  0.49393787     0.11600
H908        H  0.14684665  0.94330280  0.49461944     0.08200
C909        C  0.38619095  0.96331361  0.86298891    -0.10900
C910        C  0.39032083  0.99099606  0.87098346     0.06200
C911        C  0.41053321  0.01610479  0.85542631    -0.09700
C912        C  0.42627907  0.01355999  0.83239957    -0.11300
C913        C  0.42207095  0.98591209  0.82460581    -0.01100
C914        C  0.40196342  0.96080714  0.83997980    -0.10200
C915        C  0.37390116  0.99360828  0.89576621     0.06300
H916        H  0.41400617  0.03766198  0.86094370     0.08200
H917        H  0.44190306  0.03312864  0.82074380     0.11700
H918        H  0.39877752  0.93937808  0.83433258     0.11900
H919        H  0.37117023  0.94366813  0.87488844     0.08200
C920        C  0.34404328  0.97256887  0.89997240    -0.10900
C921        C  0.32892014  0.97412588  0.92408791    -0.10200
C922        C  0.34341956  0.99661071  0.94458729    -0.01100
C923        C  0.37306038  0.01807243  0.94008036    -0.11300
C924        C  0.38813666  0.01665407  0.91584873    -0.09700
H925        H  0.33240545  0.95479788  0.88465485     0.08200
H926        H  0.30612847  0.95723750  0.92719212     0.11900
H927        H  0.38464316  0.03573712  0.95553057     0.11600
H928        H  0.41117217  0.03307454  0.91329567     0.08200
C929        C  0.38692656  0.01836929  0.58089592    -0.10900
C930        C  0.37119858  0.99832225  0.60312442     0.06200
C931        C  0.34058730  0.97981638  0.59998667    -0.09700
C932        C  0.32621550  0.98073220  0.57483844    -0.11300
C933        C  0.34215866  0.00006696  0.55220962    -0.01100
C934        C  0.37259635  0.01924418  0.55578741    -0.10200
C935        C  0.38704478  0.99586302  0.62870316     0.06300
H936        H  0.32779456  0.96435975  0.61685046     0.08200
H937        H  0.30280482  0.96552424  0.57266022     0.11700
H938        H  0.38546812  0.03463458  0.53890054     0.11900
H939        H  0.41054817  0.03273139  0.58245270     0.08200
C940        C  0.37982961  0.96804968  0.63976591    -0.10900
C941        C  0.39638701  0.96562999  0.66218786    -0.10200
C942        C  0.42039064  0.99095256  0.67393688    -0.01100
C943        C  0.42715739  0.01873943  0.66361928    -0.11300
C944        C  0.41062806  0.02119723  0.64123019    -0.09700
H945        H  0.36205592  0.94810612  0.63039573     0.08200
H946        H  0.39097695  0.94401444  0.66991523     0.11900
H947        H  0.44557347  0.03847736  0.67259023     0.11600
H948        H  0.41648403  0.04293012  0.63350610     0.08200
C949        C  0.74413500  0.95264211  0.99049760    -0.10900
C950        C  0.76468866  0.97224568  0.51066320     0.06200
C951        C  0.75830327  0.99140939  0.52593108    -0.09700
C952        C  0.73161942  0.99064006  0.52153500    -0.11300
C953        C  0.71084590  0.97088229  0.50156111    -0.01100
C954        C  0.71753362  0.95212313  0.98579856    -0.10200
C955        C  0.79314226  0.97334609  0.51507264     0.06300
H956        H  0.77385015  0.00674304  0.54152048     0.08200
H957        H  0.72718315  0.00553529  0.53381170     0.11700
H958        H  0.70187937  0.93654865  0.97044135     0.11900
H959        H  0.74880432  0.93790320  0.97823042     0.08200
C960        C  0.79398498  0.94754813  0.02083484    -0.10900
C961        C  0.82096562  0.94833658  0.02265517    -0.10200
C962        C  0.84763535  0.97490889  0.51834989    -0.01100
C963        C  0.84668141  0.00090957  0.51379457    -0.11300
C964        C  0.81971624  0.00014205  0.51234973    -0.09700
H965        H  0.77372640  0.92670221  0.02340609     0.08200
H966        H  0.82085170  0.92791149  0.02628919     0.11900
H967        H  0.86673304  0.02173882  0.51035492     0.11600
H968        H  0.81956619  0.02031339  0.50789503     0.08200
C969        C  0.55773370  0.94337949  0.85295808    -0.10900
C970        C  0.58133916  0.96853485  0.86574856     0.06200
C971        C  0.58846753  0.99649968  0.85512815    -0.09700
C972        C  0.57210805  0.99920809  0.83267695    -0.11300
C973        C  0.54828775  0.97403438  0.82050887    -0.01100
C974        C  0.54133878  0.94613830  0.83062511    -0.10200
C975        C  0.59749443  0.96571559  0.89094148     0.06300
H976        H  0.60611018  0.01635300  0.86475744     0.08200
H977        H  0.57755466  0.02092065  0.82522580     0.11700
H978        H  0.52295089  0.92652062  0.82143883     0.11900
H979        H  0.55183807  0.92151495  0.86027299     0.08200
C980        C  0.58224557  0.94433334  0.91232504    -0.10900
C981        C  0.59673701  0.94320331  0.93719480    -0.10200
C982        C  0.62684528  0.96336393  0.94134874    -0.01100
C983        C  0.64246297  0.98393541  0.91952825    -0.11300
C984        C  0.62792829  0.98514666  0.89460894    -0.09700
H985        H  0.55879554  0.92919254  0.91046786     0.08200
H986        H  0.58420183  0.92702285  0.95364368     0.11900
H987        H  0.66563255  0.99985331  0.92228233     0.11600
H988        H  0.64045806  0.00158036  0.87838396     0.08200
C989        C  0.55590036  0.94891990  0.63643456    -0.10900
C990        C  0.57886648  0.97438798  0.62355342     0.06200
C991        C  0.58590571  0.00216955  0.63451876    -0.09700
C992        C  0.56987568  0.00440140  0.65748373    -0.11300
C993        C  0.54671109  0.97892310  0.66985479    -0.01100
C994        C  0.53995959  0.95118413  0.65940989    -0.10200
C995        C  0.59466844  0.97193802  0.59813710     0.06300
H996        H  0.60325999  0.02216441  0.62483653     0.08200
H997        H  0.57521684  0.02595118  0.66537134     0.11700
H998        H  0.52213428  0.93135254  0.66887273     0.11900
H999        H  0.55025442  0.92723671  0.62871062     0.08200
C1000       C  0.62531807  0.99016628  0.59540523    -0.10900
C1001       C  0.63990419  0.98824490  0.57099068    -0.10200
C1002       C  0.62409662  0.96816854  0.54876759    -0.01100
C1003       C  0.59353053  0.94970735  0.55170251    -0.11300
C1004       C  0.57898226  0.95158134  0.57609745    -0.09700
H1005       H  0.63800776  0.00586959  0.61217205     0.08200
H1006       H  0.66345641  0.00292137  0.56919759     0.11900
H1007       H  0.58083753  0.93381652  0.53506979     0.11600
H1008       H  0.55531378  0.93747063  0.57743828     0.08200
C1009       C  0.76854980  0.74069326  0.97750790    -0.10900
C1010       C  0.77353208  0.76701416  0.99048457     0.06200
C1011       C  0.75127777  0.76650719  0.50784293    -0.09700
C1012       C  0.72460919  0.74033300  0.51191323    -0.11300
C1013       C  0.71961166  0.71417567  0.99863990    -0.01100
C1014       C  0.74184100  0.71455962  0.98151329    -0.10200
C1015       C  0.80200683  0.79479281  0.98653816     0.06300
H1016       H  0.75459039  0.78628190  0.51854509     0.08200
H1017       H  0.70766804  0.74062082  0.52498233     0.11700
H1018       H  0.73847944  0.69460590  0.97114738     0.11900
H1019       H  0.78511296  0.74037386  0.96387018     0.08200
C1020       C  0.82866499  0.79459845  0.98651567    -0.10900
C1021       C  0.85557014  0.82097370  0.98519480    -0.10200
C1022       C  0.85638826  0.84811572  0.98412040    -0.01100
C1023       C  0.82974509  0.84825762  0.98289639    -0.11300
C1024       C  0.80285108  0.82187574  0.98395202    -0.09700
H1025       H  0.82881218  0.77415552  0.98877085     0.08200
H1026       H  0.87572536  0.82014422  0.98644495     0.11900
H1027       H  0.82966408  0.86882154  0.98190817     0.11600
H1028       H  0.78269379  0.82272323  0.98323324     0.08200
C1029       C  0.61808405  0.62913153  0.90158796    -0.10900
C1030       C  0.60027264  0.59824694  0.90204480     0.06200
C1031       C  0.59891542  0.58317007  0.92764793    -0.09700
C1032       C  0.61483804  0.59851674  0.95209283    -0.11300
C1033       C  0.63222240  0.62939956  0.95175948    -0.01100
C1034       C  0.63374399  0.64451850  0.92617609    -0.10200
C1035       C  0.58274446  0.58179098  0.87620595     0.06300
H1036       H  0.58510175  0.55947228  0.92905965     0.08200
H1037       H  0.61347564  0.58613331  0.97130438     0.11700
H1038       H  0.64662244  0.66833014  0.92527200     0.11900
H1039       H  0.62003083  0.64149234  0.88219497     0.08200
C1040       C  0.57005350  0.59389782  0.85798717    -0.10900
C1041       C  0.55253481  0.57784473  0.83449785    -0.10200
C1042       C  0.54724528  0.54936190  0.82887127    -0.01100
C1043       C  0.56010821  0.53732215  0.84664864    -0.11300
C1044       C  0.57783704  0.55342181  0.86995653    -0.09700
H1045       H  0.57294305  0.61545024  0.86229785     0.08200
H1046       H  0.54263144  0.58737397  0.82100286     0.11900
H1047       H  0.55630102  0.51537678  0.84248918     0.11600
H1048       H  0.58771927  0.54360382  0.88304327     0.08200
C1049       C  0.63311718  0.62002312  0.60582883    -0.10900
C1050       C  0.60325913  0.61158061  0.60898545     0.06200
C1051       C  0.58965157  0.61942585  0.58740649    -0.09700
C1052       C  0.60509276  0.63399326  0.56252605    -0.11300
C1053       C  0.63447436  0.64117208  0.55879724    -0.01100
C1054       C  0.64864957  0.63484227  0.58098706    -0.10200
C1055       C  0.58577873  0.59299981  0.63366207     0.06300
H1056       H  0.56665001  0.61306584  0.58910694     0.08200
H1057       H  0.59380258  0.63881552  0.54569256     0.11700
H1058       H  0.67126857  0.64007364  0.57847896     0.11900
H1059       H  0.64425653  0.61459396  0.62230442     0.08200
C1060       C  0.58890242  0.56911837  0.64261788    -0.10900
C1061       C  0.57117571  0.55037544  0.66458338    -0.10200
C1062       C  0.55015733  0.55527476  0.67801259    -0.01100
C1063       C  0.54717873  0.57926019  0.66953097    -0.11300
C1064       C  0.56481194  0.59796314  0.64745086    -0.09700
H1065       H  0.60445277  0.56441069  0.63204558     0.08200
H1066       H  0.57347397  0.53175509  0.67082377     0.11900
H1067       H  0.53088829  0.58315497  0.67970135     0.11600
H1068       H  0.56201592  0.61624963  0.64109511     0.08200
C1069       C  0.19363880  0.22533732  0.99355222    -0.10900
C1070       C  0.19354313  0.20294969  0.51031765     0.06200
C1071       C  0.22015218  0.20786595  0.52250473    -0.09700
C1072       C  0.24613949  0.23473094  0.51848657    -0.11300
C1073       C  0.24614869  0.25719520  0.50202883    -0.01100
C1074       C  0.21974071  0.25214211  0.98930607    -0.06300
C1075       C  0.16592475  0.17435518  0.51463916     0.06300
H1076       H  0.22077365  0.19111763  0.53562118     0.08200
H1077       H  0.26627713  0.23806303  0.52839209     0.11700
H1078       H  0.21918733  0.26920291  0.97665033     0.11900
H1079       H  0.17357503  0.22202807  0.98350491     0.08200
C1080       C  0.13908167  0.17336173  0.51981027    -0.10900
C1081       C  0.11285819  0.14632756  0.52212071    -0.10200
C1082       C  0.11288413  0.11968130  0.51913919    -0.01100
C1083       C  0.13991297  0.12073032  0.51505948    -0.11300
C1084       C  0.16611063  0.14773889  0.51288404    -0.09700
H1085       H  0.13831915  0.19351652  0.52173868     0.08200
H1086       H  0.09243586  0.14634566  0.52517659     0.11900
H1087       H  0.14074834  0.10066208  0.51254638     0.11600
H1088       H  0.18639436  0.14776000  0.50871373     0.08200
C1089       C  0.34412669  0.38646925  0.91269689    -0.10900
C1090       C  0.35086158  0.37156286  0.89154423     0.06200
C1091       C  0.34100852  0.34144936  0.89551024    -0.09700
C1092       C  0.32588769  0.32690220  0.92064283    -0.11300
C1093       C  0.32060588  0.34225816  0.94244273    -0.01100
C1094       C  0.32933110  0.37201207  0.93796768    -0.10200
C1095       C  0.37013408  0.38795150  0.86672199     0.06300
H1096       H  0.34560586  0.32931949  0.87943988     0.08200
H1097       H  0.31953640  0.30400595  0.92365090     0.11700
H1098       H  0.32538196  0.38428173  0.95442142     0.11900
H1099       H  0.35156986  0.40969533  0.91036817     0.08200
C1100       C  0.36663482  0.40936420  0.85183593    -0.10900
C1101       C  0.38631121  0.42617502  0.82991480    -0.10200
C1102       C  0.40988303  0.42198635  0.82273567    -0.01100
C1103       C  0.41318145  0.40038779  0.83715614    -0.11300
C1104       C  0.39343893  0.38344647  0.85887949    -0.09700
H1105       H  0.34880496  0.41320248  0.85728672     0.08200
H1106       H  0.38351982  0.44280376  0.81889762     0.11900
H1107       H  0.43135249  0.39701751  0.83187919     0.11600
H1108       H  0.39699672  0.36747368  0.87022694     0.08200
C1109       C  0.37890489  0.37411361  0.57361813    -0.10900
C1110       C  0.36479651  0.37221224  0.59996059     0.06200
C1111       C  0.33386535  0.35558681  0.60106034    -0.09700
C1112       C  0.31749056  0.34127549  0.57631568    -0.11300
C1113       C  0.33169205  0.34334059  0.54990711    -0.01100
C1114       C  0.36261361  0.35978077  0.54899816    -0.10200
C1115       C  0.38253860  0.38788969  0.62591406     0.06300
H1116       H  0.32234189  0.35350237  0.62108773     0.08200
H1117       H  0.29370047  0.32900365  0.57777709     0.11700
H1118       H  0.37435656  0.36143724  0.52924258     0.11900
H1119       H  0.40265478  0.38704271  0.57190506     0.08200
C1120       C  0.40933464  0.38882544  0.63153971    -0.10900
C1121       C  0.42712046  0.40516633  0.65473850    -0.10200
C1122       C  0.41839146  0.42074458  0.67286499    -0.01100
C1123       C  0.39138617  0.41936930  0.66782720    -0.11300
C1124       C  0.37357511  0.40305792  0.64456594    -0.09700
H1125       H  0.41664074  0.37701734  0.61787379     0.08200
H1126       H  0.44788998  0.40599550  0.65837328     0.11900
H1127       H  0.38445697  0.43146353  0.68155957     0.11600
H1128       H  0.35325826  0.40306222  0.64065479     0.08200
loop_ 
_geom_bond_atom_site_label_1 
_geom_bond_atom_site_label_2 
_geom_bond_distance 
_geom_bond_site_symmetry_2 
_ccdc_geom_bond_type 
C1            C2   1.405   1_556  A
C1          C570   1.407       .  A
C1          C509   1.482   1_556  S
C2            C3   1.404       .  A
C2            H7   1.083       .  S
C3          C568   1.406   1_554  A
C3          C549   1.491       .  S
C4            C5   1.405       .  A
C4          C567   1.406       .  A
C4            H8   1.083       .  S
C5            C6   1.405       .  A
C5          C529   1.484       .  S
C6          C565   1.406       .  A
C6            H9   1.084       .  S
C10          C11   1.406       .  A
C10         C579   1.404   1_554  A
C10        C1013   1.479   1_554  S
C11          C12   1.403       .  A
C11          H16   1.084       .  S
C12         C577   1.402       .  A
C12         C489   1.478       .  S
C13          C14   1.403       .  A
C13         C576   1.402       .  A
C13          H17   1.083       .  S
C14          C15   1.403       .  A
C14         C469   1.486       .  S
C15         C574   1.404       .  A
C15          H18   1.083       .  S
N19          C24   1.355       .  A
N19          C23   1.354       .  A
N19          H51   1.034       .  S
N20          C27   1.351       .  A
N20          C28   1.352       .  A
N21          C26   1.354       .  A
N21          C25   1.354       .  A
N21          H52   1.036       .  S
N22          C29   1.352       .  A
N22          C30   1.351       .  A
C23          C31   1.388       .  A
C23          C39   1.418       .  A
C24          C40   1.419       .  A
C24          C32   1.387       .  A
C25          C33   1.386       .  A
C25          C42   1.416       .  A
C26          C41   1.418       .  A
C26          C34   1.388       .  A
C27          C39   1.414       .  A
C27          C35   1.387       .  A
C28          C42   1.414       .  A
C28          C36   1.386       .  A
C29          C37   1.386       .  A
C29          C40   1.414       .  A
C30          C38   1.386       .  A
C30          C41   1.414       .  A
C31          C32   1.373       .  A
C31          H43   1.082       .  S
C32          H44   1.082       .  S
C33          C34   1.374       .  A
C33          H45   1.082       .  S
C34          H46   1.082       .  S
C35          C36   1.372       .  A
C35          H47   1.082       .  S
C36          H48   1.082       .  S
C37          C38   1.373       .  A
C37          H49   1.082       .  S
C38          H50   1.082       .  S
C39         C498   1.480       .  S
C40         C558   1.487       .  S
C41         C538   1.484       .  S
C42         C478   1.485       .  S
C53          C54   1.405   1_556  A
C53         C622   1.411       .  A
C53         C389   1.486   1_556  S
C54          C55   1.400       .  A
C54          H59   1.084       .  S
C55          C56   1.401   1_554  A
C55         C438   1.483       .  S
C56         C621   1.403       .  A
C56          H60   1.084       .  S
C57          C58   1.409       .  A
C57         C620   1.404       .  A
C57         C418   1.485       .  S
C58         C617   1.411       .  A
C58          H61   1.083       .  S
C62          C67   1.410   1_556  A
C62         C627   1.406       .  A
C62         C893   1.487       .  S
C63          C64   1.403       .  A
C63         C626   1.406       .  A
C63          H68   1.084       .  S
C64         C629   1.401       .  A
C64         C358   1.480       .  S
C65          C66   1.404   1_556  A
C65         C628   1.401       .  A
C65          H69   1.084   1_565  S
C66          C67   1.408       .  A
C66         C369   1.489   1_565  S
C67          H70   1.083       .  S
N71          C76   1.356       .  A
N71          C75   1.355       .  A
N71         H103   1.034       .  S
N72          C79   1.350       .  A
N72          C80   1.351       .  A
N73          C78   1.354       .  A
N73          C77   1.356       .  A
N73         H104   1.034       .  S
N74          C81   1.351       .  A
N74          C82   1.350       .  A
C75          C83   1.388       .  A
C75          C91   1.421       .  A
C76          C92   1.420       .  A
C76          C84   1.387       .  A
C77          C85   1.387       .  A
C77          C94   1.419       .  A
C78          C93   1.420       .  A
C78          C86   1.388       .  A
C79          C91   1.416       .  A
C79          C87   1.388       .  A
C80          C94   1.415       .  A
C80          C88   1.386       .  A
C81          C89   1.386       .  A
C81          C92   1.415       .  A
C82          C90   1.388       .  A
C82          C93   1.416       .  A
C83          C84   1.373       .  A
C83          H95   1.082       .  S
C84          H96   1.082       .  S
C85          C86   1.371       .  A
C85          H97   1.082       .  S
C86          H98   1.082       .  S
C87          C88   1.372       .  A
C87          H99   1.082       .  S
C88         H100   1.082       .  S
C89          C90   1.372       .  A
C89         H101   1.082       .  S
C90         H102   1.082       .  S
C91         C429   1.481       .  S
C92         C378   1.486       .  S
C93         C349   1.481       .  S
C94         C409   1.486       .  S
C105        C110   1.410       .  A
C105        C670   1.409   1_554  A
C105        C833   1.490   1_554  S
C106        C107   1.405       .  A
C106        C669   1.409       .  A
C106        H111   1.083       .  S
C107        C672   1.403       .  A
C107        C309   1.485       .  S
C108        C109   1.401       .  A
C108        C671   1.403   1_554  A
C108        H112   1.084       .  S
C109        C110   1.404       .  A
C109        C289   1.482       .  S
C110        H113   1.083       .  S
C114        C115   1.410       .  A
C114        C683   1.410   1_654  A
C114        C218   1.491       .  S
C115        C116   1.407   1_655  A
C115        H120   1.083       .  S
C116        C117   1.405   1_554  A
C116        C249   1.492   1_455  S
C117        C682   1.403       .  A
C117        H121   1.083       .  S
C118        C119   1.405       .  A
C118        C681   1.403       .  A
C118        C238   1.487       .  S
C119        C678   1.410   1_455  A
C119        H122   1.083       .  S
N123        C128   1.355       .  A
N123        C127   1.356       .  A
N123        H155   1.036       .  S
N124        C131   1.352       .  A
N124        C132   1.351       .  A
N125        C130   1.354   1_655  A
N125        C129   1.353       .  A
N125        H156   1.032       .  S
N126        C133   1.351       .  A
N126        C134   1.353       .  A
C127        C135   1.387       .  A
C127        C143   1.420       .  A
C128        C144   1.419       .  A
C128        C136   1.387       .  A
C129        C137   1.388   1_655  A
C129        C146   1.418       .  A
C130        C145   1.419   1_455  A
C130        C138   1.387       .  A
C131        C143   1.413       .  A
C131        C139   1.386       .  A
C132        C146   1.416       .  A
C132        C140   1.388       .  A
C133        C141   1.387       .  A
C133        C144   1.415       .  A
C134        C142   1.386       .  A
C134        C145   1.416       .  A
C135        C136   1.374       .  A
C135        H147   1.082       .  S
C136        H148   1.082   1_655  S
C137        C138   1.374       .  A
C137        H149   1.082       .  S
C138        H150   1.082       .  S
C139        C140   1.373       .  A
C139        H151   1.082       .  S
C140        H152   1.082       .  S
C141        C142   1.373       .  A
C141        H153   1.082       .  S
C142        H154   1.082       .  S
C143        C298   1.487       .  S
C144        C258   1.486       .  S
C145        C229   1.487   1_655  S
C146        C318   1.481       .  S
O157       Mg159   2.149       .  S
O157       Mg729   2.159   1_554  S
O157        C192   1.236       .  S
C158        H197   1.081       .  S
C158        O171   1.234       .  S
C158        O195   1.269       .  A
Mg159       O752   2.154   1_554  S
Mg159       O199   2.264       .  S
Mg159       O170   2.300       .  S
Mg159       O767   2.295   1_554  S
O160       Mg185   2.141       .  S
O160       Mg766   2.156   1_564  S
O160        C181   1.235   1_565  S
O161        C192   1.270       .  A
O161       Mg185   2.302   1_655  S
C162        C278   1.483       .  S
C162        O164   1.272       .  A
C162        O176   1.275   1_655  A
O163        C191   1.270       .  A
O163       Mg165   2.300       .  S
O164       Mg196   2.264       .  S
Mg165       O171   2.144   1_655  S
Mg165       O721   2.159       .  S
Mg165       O179   2.254       .  S
Mg165       O731   2.304       .  S
C166        C518   1.483       .  S
C166        O204   1.273       .  A
C166        O172   1.276       .  A
O167        C174   1.274       .  A
O167       Mg729   2.304   1_554  S
H168        C181   1.081       .  S
C169        H194   1.081       .  S
C169        O183   1.235       .  S
C169        O184   1.270   1_455  A
O170        C193   1.270   1_565  A
O171       Mg749   2.152       .  S
O172       Mg766   2.301   1_554  S
C173        C338   1.487       .  S
C173        O186   1.274   1_565  A
C173        O178   1.275       .  A
C174        C209   1.484       .  S
C174        O201   1.272   1_655  A
Mg175       O182   2.155   1_455  S
Mg175       O747   2.159   1_554  S
Mg175       O177   2.298       .  S
Mg175       O204   2.265       .  S
Mg175       O740   2.298   1_554  S
O176       Mg739   2.298       .  S
O177        C181   1.269       .  A
O178       Mg749   2.303       .  S
O179        C198   1.271       .  A
O180        C200   1.277       .  A
O180       Mg760   2.313   1_564  S
O182       Mg760   2.160   1_554  S
O182        C193   1.235       .  S
O183       Mg202   2.151       .  S
O183       Mg739   2.159       .  S
O184       Mg196   2.301       .  S
Mg185       O735   2.152   1_554  S
Mg185       O201   2.261       .  S
Mg185       O742   2.303   1_554  S
O186       Mg202   2.276       .  S
H187        C192   1.081       .  S
O188       Mg196   2.142   1_565  S
O188       Mg723   2.154       .  S
O188        C191   1.235       .  S
H189        C191   1.081       .  S
H190        C193   1.081       .  S
O195       Mg202   2.296   1_565  S
Mg196       O746   2.160       .  S
Mg196       O744   2.313   1_545  S
C198        C458   1.478       .  S
C198        O203   1.274       .  A
O199        C200   1.272       .  A
C200        C398   1.486       .  S
Mg202       O724   2.156   1_545  S
Mg202       O736   2.301       .  S
O203       Mg723   2.295       .  S
C205        C210   1.401       .  A
C205        C770   1.406       .  A
C205        H215   1.083       .  S
C206        C207   1.405   1_655  A
C206        C769   1.406       .  A
C206        C211   1.487       .  S
C207        C208   1.398       .  A
C207        H212   1.083       .  S
C208        C209   1.406   1_455  A
C208        H213   1.083       .  S
C209        C774   1.407       .  A
C210        C773   1.407       .  A
C210        H214   1.083       .  S
C211        C220   1.406   1_654  A
C211        C780   1.405       .  A
C216        C217   1.400       .  A
C216        C775   1.405       .  A
C216        H221   1.083       .  S
C217        C782   1.408       .  A
C217        H222   1.083       .  S
C218        C219   1.407   1_654  A
C218        C781   1.408       .  A
C219        C220   1.399       .  A
C219        H223   1.083       .  S
C220        H224   1.083       .  S
C225        C226   1.407   1_655  A
C225        C230   1.398       .  A
C225        H235   1.083       .  S
C226        C227   1.408       .  A
C226        C231   1.488       .  S
C227        C228   1.401       .  A
C227        H232   1.083       .  S
C228        C229   1.403       .  A
C228        H233   1.083       .  S
C229        C230   1.401   1_455  A
C230        H234   1.083       .  S
C231        C236   1.407   1_455  A
C231        C240   1.405       .  A
C236        C237   1.401       .  A
C236        H241   1.083       .  S
C237        C238   1.405   1_655  A
C237        H242   1.083       .  S
C238        C239   1.406       .  A
C239        C240   1.398       .  A
C239        H243   1.083       .  S
C240        H244   1.083       .  S
C245        C246   1.404       .  A
C245        C250   1.397       .  A
C245        H255   1.083       .  S
C246        C247   1.407   1_655  A
C246        C251   1.488       .  S
C247        C248   1.402       .  A
C247        H252   1.083       .  S
C248        C249   1.407   1_455  A
C248        H253   1.083       .  S
C249        C250   1.407       .  A
C250        H254   1.083       .  S
C251        C256   1.408       .  A
C251        C260   1.407   1_655  A
C256        C257   1.399       .  A
C256        H261   1.083       .  S
C257        C258   1.401       .  A
C257        H262   1.083       .  S
C258        C259   1.402   1_655  A
C259        C260   1.399       .  A
C259        H263   1.083       .  S
C260        H264   1.083       .  S
C265        C270   1.398       .  A
C265        C830   1.406   1_554  A
C265        H275   1.083   1_655  S
C266        C267   1.405       .  A
C266        C829   1.406       .  A
C266        C271   1.487       .  S
C267        C268   1.399       .  A
C267        H272   1.083       .  S
C268        C269   1.408       .  A
C268        H273   1.083       .  S
C269        C834   1.406       .  A
C269        C669   1.491       .  S
C270        C833   1.406   1_554  A
C270        H274   1.083   1_655  S
C271        C276   1.405   1_655  A
C271        C280   1.406       .  A
C276        C277   1.397       .  A
C276        H281   1.083       .  S
C277        C278   1.407   1_455  A
C277        H282   1.083       .  S
C278        C279   1.407       .  A
C279        C280   1.399       .  A
C279        H283   1.083       .  S
C280        H284   1.083       .  S
C285        C286   1.407       .  A
C285        C290   1.402       .  A
C285        H295   1.083       .  S
C286        C287   1.406   1_655  A
C286        C291   1.488       .  S
C287        C288   1.397       .  A
C287        H292   1.083       .  S
C288        C289   1.404   1_455  A
C288        H293   1.083       .  S
C289        C290   1.404       .  A
C290        H294   1.083       .  S
C291        C296   1.407       .  A
C291        C300   1.407   1_655  A
C296        C297   1.400       .  A
C296        H301   1.083       .  S
C297        C298   1.402       .  A
C297        H302   1.083       .  S
C298        C299   1.402   1_655  A
C299        C300   1.400       .  A
C299        H303   1.083       .  S
C300        H304   1.083       .  S
C305        C306   1.406       .  A
C305        C310   1.399       .  A
C305        H315   1.083   1_655  S
C306        C307   1.405       .  A
C306        C311   1.485       .  S
C307        C308   1.396       .  A
C307        H312   1.083       .  S
C308        C309   1.405       .  A
C308        H313   1.083       .  S
C309        C310   1.405       .  A
C310        H314   1.083   1_655  S
C311        C316   1.408   1_655  A
C311        C320   1.407       .  A
C316        C317   1.399       .  A
C316        H321   1.083       .  S
C317        C318   1.401   1_455  A
C317        H322   1.083       .  S
C318        C319   1.400       .  A
C319        C320   1.396       .  A
C319        H323   1.083       .  S
C320        H324   1.083       .  S
C325        C326   1.405       .  A
C325        C330   1.401       .  A
C325        H335   1.083       .  S
C326        C891   1.404   1_565  A
C326        C331   1.484       .  S
C327        C328   1.399       .  A
C327        C890   1.404   1_544  A
C327        H332   1.083       .  S
C328        C893   1.405   1_544  A
C328        H333   1.083       .  S
C329        C330   1.407       .  A
C329        C892   1.405   1_565  A
C329        C626   1.487       .  S
C330        H334   1.083       .  S
C331        C336   1.405   1_565  A
C331        C904   1.403       .  A
C336        C337   1.400       .  A
C336        H341   1.083       .  S
C337        C338   1.407   1_545  A
C337        H342   1.083       .  S
C338        C903   1.409       .  A
C339        C340   1.400       .  A
C339        C902   1.409       .  A
C339        H343   1.083       .  S
C340        C895   1.403       .  A
C340        H344   1.083       .  S
C345        C346   1.407       .  A
C345        C350   1.396       .  A
C345        H355   1.083       .  S
C346        C347   1.406   1_565  A
C346        C351   1.483       .  S
C347        C348   1.397       .  A
C347        H352   1.083       .  S
C348        C349   1.401   1_545  A
C348        H353   1.083       .  S
C349        C350   1.400       .  A
C350        H354   1.083       .  S
C351        C356   1.406       .  A
C351        C360   1.406   1_565  A
C356        C357   1.397       .  A
C356        H361   1.083       .  S
C357        C358   1.403       .  A
C357        H362   1.083       .  S
C358        C359   1.405   1_565  A
C359        C360   1.397       .  A
C359        H363   1.083       .  S
C360        H364   1.083       .  S
C365        C366   1.406   1_545  A
C365        C370   1.398       .  A
C365        H375   1.083       .  S
C366        C367   1.407       .  A
C366        C371   1.489       .  S
C367        C368   1.401       .  A
C367        H372   1.083       .  S
C368        C369   1.406   1_565  A
C368        H373   1.083       .  S
C369        C370   1.406       .  A
C370        H374   1.083       .  S
C371        C376   1.408       .  A
C371        C380   1.408   1_565  A
C376        C377   1.400       .  A
C376        H381   1.083       .  S
C377        C378   1.402       .  A
C377        H382   1.083       .  S
C378        C379   1.401   1_565  A
C379        C380   1.399       .  A
C379        H383   1.083       .  S
C380        H384   1.083       .  S
C385        C390   1.401       .  A
C385        C950   1.406       .  A
C385        H395   1.083       .  S
C386        C387   1.402       .  A
C386        C949   1.406   1_554  A
C386        C391   1.481       .  S
C387        C388   1.397       .  A
C387        H392   1.083   1_565  S
C388        C389   1.407       .  A
C388        H393   1.083   1_565  S
C389        C954   1.405   1_554  A
C390        C953   1.405       .  A
C390        H394   1.083       .  S
C391        C400   1.403   1_565  A
C391        C960   1.403       .  A
C396        C397   1.400       .  A
C396        C955   1.403       .  A
C396        H401   1.083       .  S
C397        C962   1.408       .  A
C397        H402   1.083       .  S
C398        C399   1.407   1_565  A
C398        C961   1.408       .  A
C399        C400   1.399       .  A
C399        H403   1.083       .  S
C400        H404   1.083       .  S
C405        C406   1.408       .  A
C405        C410   1.398       .  A
C405        H415   1.082       .  S
C406        C407   1.409       .  A
C406        C411   1.492       .  S
C407        C408   1.400       .  A
C407        H412   1.082   1_565  S
C408        C409   1.402       .  A
C408        H413   1.083   1_565  S
C409        C410   1.400       .  A
C410        H414   1.083       .  S
C411        C416   1.407       .  A
C411        C420   1.409       .  A
C416        C417   1.397       .  A
C416        H421   1.082       .  S
C417        C418   1.405       .  A
C417        H422   1.083       .  S
C418        C419   1.404       .  A
C419        C420   1.402       .  A
C419        H423   1.083       .  S
C420        H424   1.082   1_565  S
C425        C426   1.406       .  A
C425        C430   1.396       .  A
C425        H435   1.083       .  S
C426        C427   1.407   1_565  A
C426        C431   1.483       .  S
C427        C428   1.398       .  A
C427        H432   1.083       .  S
C428        C429   1.401   1_545  A
C428        H433   1.083       .  S
C429        C430   1.401       .  A
C430        H434   1.083       .  S
C431        C436   1.405       .  A
C431        C440   1.405       .  A
C436        C437   1.398       .  A
C436        H441   1.083   1_565  S
C437        C438   1.406       .  A
C437        H442   1.083   1_565  S
C438        C439   1.404       .  A
C439        C440   1.395       .  A
C439        H443   1.083       .  S
C440        H444   1.083       .  S
C445        C446   1.406       .  A
C445        C450   1.396       .  A
C445        H455   1.083       .  S
C446       C1011   1.407       .  A
C446        C451   1.485       .  S
C447        C448   1.397       .  A
C447       C1010   1.407   1_554  A
C447        H452   1.083       .  S
C448       C1013   1.403   1_554  A
C448        H453   1.083       .  S
C449        C450   1.404       .  A
C449       C1012   1.403       .  A
C449        C574   1.479       .  S
C450        H454   1.083       .  S
C451        C456   1.406       .  A
C451        C460   1.406       .  A
C456        C457   1.397       .  A
C456        H461   1.083       .  S
C457        C458   1.405       .  A
C457        H462   1.083       .  S
C458        C459   1.405       .  A
C459        C460   1.396       .  A
C459        H463   1.083       .  S
C460        H464   1.083       .  S
C465        C466   1.407       .  A
C465        C470   1.398       .  A
C465        H475   1.082       .  S
C466        C467   1.407       .  A
C466        C471   1.491       .  S
C467        C468   1.396       .  A
C467        H472   1.082       .  S
C468        C469   1.405       .  A
C468        H473   1.083       .  S
C469        C470   1.406       .  A
C470        H474   1.083       .  S
C471        C476   1.409       .  A
C471        C480   1.408       .  A
C476        C477   1.399       .  A
C476        H481   1.082       .  S
C477        C478   1.402       .  A
C477        H482   1.083       .  S
C478        C479   1.401       .  A
C479        C480   1.397       .  A
C479        H483   1.083       .  S
C480        H484   1.082       .  S
C485        C486   1.407       .  A
C485        C490   1.399       .  A
C485        H495   1.083       .  S
C486        C487   1.405       .  A
C486        C491   1.484       .  S
C487        C488   1.396       .  A
C487        H492   1.083       .  S
C488        C489   1.404       .  A
C488        H493   1.083       .  S
C489        C490   1.403       .  A
C490        H494   1.083       .  S
C491        C496   1.407       .  A
C491        C500   1.407       .  A
C496        C497   1.396       .  A
C496        H501   1.083       .  S
C497        C498   1.400       .  A
C497        H502   1.083       .  S
C498        C499   1.401       .  A
C499        C500   1.398       .  A
C499        H503   1.083       .  S
C500        H504   1.083       .  S
C505        C510   1.400       .  A
C505       C1070   1.407       .  A
C505        H515   1.083       .  S
C506        C507   1.405       .  A
C506       C1069   1.407   1_554  A
C506        C511   1.486       .  S
C507        C508   1.397       .  A
C507        H512   1.083       .  S
C508        C509   1.404       .  A
C508        H513   1.083       .  S
C509       C1074   1.404   1_554  A
C510       C1073   1.404       .  A
C510        H514   1.083       .  S
C511        C516   1.406       .  A
C511        C520   1.405       .  A
C516        C517   1.399       .  A
C516        H521   1.083       .  S
C517        C518   1.407       .  A
C517        H522   1.083       .  S
C518        C519   1.406       .  A
C519        C520   1.397       .  A
C519        H523   1.083       .  S
C520        H524   1.083       .  S
C525        C526   1.406       .  A
C525        C530   1.399       .  A
C525        H535   1.083       .  S
C526        C527   1.407       .  A
C526        C531   1.487       .  S
C527        C528   1.400       .  A
C527        H532   1.083       .  S
C528        C529   1.404       .  A
C528        H533   1.083       .  S
C529        C530   1.405       .  A
C530        H534   1.083       .  S
C531        C536   1.408       .  A
C531        C540   1.407       .  A
C536        C537   1.401       .  A
C536        H541   1.083       .  S
C537        C538   1.403       .  A
C537        H542   1.083       .  S
C538        C539   1.400       .  A
C539        C540   1.397       .  A
C539        H543   1.083       .  S
C540        H544   1.083       .  S
C545        C546   1.405       .  A
C545        C550   1.396       .  A
C545        H555   1.083       .  S
C546        C547   1.407       .  A
C546        C551   1.488       .  S
C547        C548   1.402       .  A
C547        H552   1.083       .  S
C548        C549   1.408       .  A
C548        H553   1.083       .  S
C549        C550   1.406       .  A
C550        H554   1.082       .  S
C551        C556   1.408       .  A
C551        C560   1.407       .  A
C556        C557   1.398       .  A
C556        H561   1.083       .  S
C557        C558   1.401       .  A
C557        H562   1.083       .  S
C558        C559   1.403       .  A
C559        C560   1.400       .  A
C559        H563   1.083       .  S
C560        H564   1.083       .  S
C565        C566   1.405       .  A
C565       C1073   1.482       .  S
C566        C567   1.404       .  A
C566        H571   1.083       .  S
C567       C1113   1.491       .  S
C568        C569   1.405       .  A
C568        H572   1.083       .  S
C569        C570   1.405       .  A
C569       C1093   1.484       .  S
C570        H573   1.084       .  S
C574        C575   1.406       .  A
C575        C576   1.403       .  A
C575        H580   1.084       .  S
C576       C1053   1.478       .  S
C577        C578   1.403   1_554  A
C577        H581   1.083       .  S
C578        C579   1.403       .  A
C578       C1033   1.486       .  S
C579        H582   1.083       .  S
N583        C588   1.355       .  A
N583        C587   1.354       .  A
N583        H615   1.034       .  S
N584        C591   1.351       .  A
N584        C592   1.352       .  A
N585        C590   1.354       .  A
N585        C589   1.354       .  A
N585        H616   1.036       .  S
N586        C593   1.352       .  A
N586        C594   1.351       .  A
C587        C595   1.388       .  A
C587        C603   1.418       .  A
C588        C604   1.419       .  A
C588        C596   1.387       .  A
C589        C597   1.386       .  A
C589        C606   1.416       .  A
C590        C605   1.418       .  A
C590        C598   1.388       .  A
C591        C603   1.414       .  A
C591        C599   1.387       .  A
C592        C606   1.414       .  A
C592        C600   1.386       .  A
C593        C601   1.386       .  A
C593        C604   1.414       .  A
C594        C602   1.386       .  A
C594        C605   1.414       .  A
C595        C596   1.373       .  A
C595        H607   1.082       .  S
C596        H608   1.082       .  S
C597        C598   1.374       .  A
C597        H609   1.082       .  S
C598        H610   1.082       .  S
C599        C600   1.372       .  A
C599        H611   1.082       .  S
C600        H612   1.082       .  S
C601        C602   1.373       .  A
C601        H613   1.082       .  S
C602        H614   1.082       .  S
C603       C1062   1.480       .  S
C604       C1122   1.487       .  S
C605       C1102   1.484       .  S
C606       C1042   1.485       .  S
C617        C618   1.405       .  A
C617        C953   1.486       .  S
C618        C619   1.400       .  A
C618        H623   1.084       .  S
C619        C620   1.401       .  A
C619       C1002   1.483       .  S
C620        H624   1.084       .  S
C621        C622   1.409       .  A
C621        C982   1.485       .  S
C622        H625   1.083       .  S
C626        C631   1.410       .  A
C627        C628   1.403       .  A
C627        H632   1.084       .  S
C628        C922   1.480       .  S
C629        C630   1.404       .  A
C629        H633   1.084   1_565  S
C630        C631   1.408       .  A
C630        C933   1.489   1_565  S
C631        H634   1.083       .  S
N635        C640   1.356       .  A
N635        C639   1.355       .  A
N635        H667   1.034       .  S
N636        C643   1.350       .  A
N636        C644   1.351       .  A
N637        C642   1.354       .  A
N637        C641   1.356       .  A
N637        H668   1.034       .  S
N638        C645   1.351       .  A
N638        C646   1.350       .  A
C639        C647   1.388       .  A
C639        C655   1.421       .  A
C640        C656   1.420       .  A
C640        C648   1.387       .  A
C641        C649   1.387       .  A
C641        C658   1.419       .  A
C642        C657   1.420       .  A
C642        C650   1.388       .  A
C643        C655   1.416       .  A
C643        C651   1.388       .  A
C644        C658   1.415       .  A
C644        C652   1.386       .  A
C645        C653   1.386       .  A
C645        C656   1.415       .  A
C646        C654   1.388       .  A
C646        C657   1.416       .  A
C647        C648   1.373       .  A
C647        H659   1.082       .  S
C648        H660   1.082       .  S
C649        C650   1.371       .  A
C649        H661   1.082       .  S
C650        H662   1.082       .  S
C651        C652   1.372       .  A
C651        H663   1.082       .  S
C652        H664   1.082       .  S
C653        C654   1.372       .  A
C653        H665   1.082       .  S
C654        H666   1.082       .  S
C655        C993   1.481       .  S
C656        C942   1.486       .  S
C657        C913   1.481       .  S
C658        C973   1.486       .  S
C669        C674   1.410       .  A
C670        C671   1.405       .  A
C670        H675   1.083       .  S
C671        C873   1.485       .  S
C672        C673   1.401       .  A
C672        H676   1.084       .  S
C673        C674   1.404       .  A
C673        C853   1.482       .  S
C674        H677   1.083       .  S
C678        C679   1.410       .  A
C678        C782   1.491       .  S
C679        C680   1.407   1_655  A
C679        H684   1.083       .  S
C680        C681   1.405       .  A
C680        C813   1.492   1_455  S
C681        H685   1.083       .  S
C682        C683   1.405       .  A
C682        C802   1.487       .  S
C683        H686   1.083       .  S
N687        C692   1.355       .  A
N687        C691   1.356       .  A
N687        H719   1.036       .  S
N688        C695   1.352       .  A
N688        C696   1.351       .  A
N689        C694   1.354   1_655  A
N689        C693   1.353       .  A
N689        H720   1.032       .  S
N690        C697   1.351       .  A
N690        C698   1.353       .  A
C691        C699   1.387       .  A
C691        C707   1.420       .  A
C692        C708   1.419       .  A
C692        C700   1.387       .  A
C693        C701   1.388   1_655  A
C693        C710   1.418       .  A
C694        C709   1.419   1_455  A
C694        C702   1.388       .  A
C695        C707   1.413       .  A
C695        C703   1.386       .  A
C696        C710   1.416       .  A
C696        C704   1.388       .  A
C697        C705   1.387       .  A
C697        C708   1.415       .  A
C698        C706   1.386       .  A
C698        C709   1.416       .  A
C699        C700   1.374       .  A
C699        H711   1.082       .  S
C700        H712   1.082   1_655  S
C701        C702   1.374       .  A
C701        H713   1.082       .  S
C702        H714   1.082       .  S
C703        C704   1.373       .  A
C703        H715   1.082       .  S
C704        H716   1.082       .  S
C705        C706   1.373       .  A
C705        H717   1.082       .  S
C706        H718   1.082       .  S
C707        C862   1.487       .  S
C708        C822   1.486       .  S
C709        C793   1.487   1_655  S
C710        C882   1.481       .  S
O721       Mg723   2.149       .  S
O721        C756   1.236       .  S
C722        H761   1.081       .  S
C722        O735   1.234       .  S
C722        O759   1.269       .  A
Mg723       O763   2.264       .  S
Mg723       O734   2.301       .  S
O724       Mg749   2.141       .  S
O724        C745   1.235   1_565  S
O725        C756   1.270       .  A
O725       Mg749   2.302   1_655  S
C726        C842   1.483       .  S
C726        O728   1.272       .  A
C726        O740   1.275   1_655  A
O727        C755   1.270       .  A
O727       Mg729   2.300       .  S
O728       Mg760   2.264       .  S
Mg729       O735   2.144   1_655  S
Mg729       O743   2.254       .  S
C730       C1082   1.483       .  S
C730        O768   1.273       .  A
C730        O736   1.276       .  A
O731        C738   1.274       .  A
H732        C745   1.081       .  S
C733        H758   1.081       .  S
C733        O747   1.235       .  S
C733        O748   1.270   1_455  A
O734        C757   1.270   1_565  A
C737        C902   1.487       .  S
C737        O750   1.274   1_565  A
C737        O742   1.275       .  A
C738        C773   1.484       .  S
C738        O765   1.272   1_655  A
Mg739       O746   2.155   1_455  S
Mg739       O741   2.298       .  S
Mg739       O768   2.265       .  S
O741        C745   1.269       .  A
O743        C762   1.271       .  A
O744        C764   1.277       .  A
O746        C757   1.235       .  S
O747       Mg766   2.151       .  S
O748       Mg760   2.301       .  S
Mg749       O765   2.261       .  S
O750       Mg766   2.276       .  S
H751        C756   1.081       .  S
O752       Mg760   2.142   1_565  S
O752        C755   1.235       .  S
H753        C755   1.081       .  S
H754        C757   1.081       .  S
O759       Mg766   2.296   1_565  S
C762       C1022   1.478       .  S
C762        O767   1.274       .  A
O763        C764   1.272       .  A
C764        C962   1.486       .  S
C769        C774   1.401       .  A
C769        H779   1.083       .  S
C770        C771   1.405   1_655  A
C770        C775   1.487       .  S
C771        C772   1.398       .  A
C771        H776   1.083       .  S
C772        C773   1.406   1_455  A
C772        H777   1.083       .  S
C774        H778   1.083       .  S
C775        C784   1.406   1_655  A
C780        C781   1.400       .  A
C780        H785   1.083       .  S
C781        H786   1.083       .  S
C782        C783   1.407   1_655  A
C783        C784   1.399       .  A
C783        H787   1.083       .  S
C784        H788   1.083       .  S
C789        C790   1.407   1_655  A
C789        C794   1.398       .  A
C789        H799   1.083       .  S
C790        C791   1.408       .  A
C790        C795   1.487       .  S
C791        C792   1.401       .  A
C791        H796   1.083       .  S
C792        C793   1.403       .  A
C792        H797   1.083       .  S
C793        C794   1.401   1_455  A
C794        H798   1.083       .  S
C795        C800   1.407   1_455  A
C795        C804   1.405       .  A
C800        C801   1.401       .  A
C800        H805   1.083       .  S
C801        C802   1.405   1_655  A
C801        H806   1.083       .  S
C802        C803   1.406       .  A
C803        C804   1.398       .  A
C803        H807   1.083       .  S
C804        H808   1.083       .  S
C809        C810   1.404       .  A
C809        C814   1.396       .  A
C809        H819   1.083       .  S
C810        C811   1.407   1_655  A
C810        C815   1.488       .  S
C811        C812   1.402       .  A
C811        H816   1.083       .  S
C812        C813   1.407   1_455  A
C812        H817   1.083       .  S
C813        C814   1.407       .  A
C814        H818   1.083       .  S
C815        C820   1.408       .  A
C815        C824   1.407   1_655  A
C820        C821   1.399       .  A
C820        H825   1.083       .  S
C821        C822   1.401       .  A
C821        H826   1.083       .  S
C822        C823   1.402   1_655  A
C823        C824   1.399       .  A
C823        H827   1.083       .  S
C824        H828   1.083       .  S
C829        C834   1.398       .  A
C829        H839   1.083   1_655  S
C830        C831   1.405       .  A
C830        C835   1.487       .  S
C831        C832   1.399       .  A
C831        H836   1.083       .  S
C832        C833   1.408       .  A
C832        H837   1.083       .  S
C834        H838   1.083   1_655  S
C835        C840   1.405   1_655  A
C835        C844   1.406       .  A
C840        C841   1.397       .  A
C840        H845   1.083       .  S
C841        C842   1.407   1_455  A
C841        H846   1.083       .  S
C842        C843   1.407       .  A
C843        C844   1.399       .  A
C843        H847   1.083       .  S
C844        H848   1.083       .  S
C849        C850   1.407       .  A
C849        C854   1.402       .  A
C849        H859   1.083       .  S
C850        C851   1.406   1_655  A
C850        C855   1.488       .  S
C851        C852   1.397       .  A
C851        H856   1.083       .  S
C852        C853   1.404   1_455  A
C852        H857   1.083       .  S
C853        C854   1.404       .  A
C854        H858   1.083       .  S
C855        C860   1.407       .  A
C855        C864   1.407   1_655  A
C860        C861   1.400       .  A
C860        H865   1.083       .  S
C861        C862   1.402       .  A
C861        H866   1.083       .  S
C862        C863   1.402   1_655  A
C863        C864   1.400       .  A
C863        H867   1.083       .  S
C864        H868   1.083       .  S
C869        C870   1.406       .  A
C869        C874   1.399       .  A
C869        H879   1.083   1_655  S
C870        C871   1.405       .  A
C870        C875   1.485       .  S
C871        C872   1.396       .  A
C871        H876   1.083       .  S
C872        C873   1.405       .  A
C872        H877   1.083       .  S
C873        C874   1.405       .  A
C874        H878   1.083   1_655  S
C875        C880   1.408   1_655  A
C875        C884   1.407       .  A
C880        C881   1.399       .  A
C880        H885   1.083       .  S
C881        C882   1.401   1_455  A
C881        H886   1.083       .  S
C882        C883   1.400       .  A
C883        C884   1.396       .  A
C883        H887   1.083       .  S
C884        H888   1.083       .  S
C889        C890   1.405       .  A
C889        C894   1.401       .  A
C889        H899   1.083       .  S
C890        C895   1.484       .  S
C891        C892   1.399       .  A
C891        H896   1.083       .  S
C892        H897   1.083       .  S
C893        C894   1.407       .  A
C894        H898   1.083       .  S
C895        C900   1.405   1_565  A
C900        C901   1.400       .  A
C900        H905   1.083       .  S
C901        C902   1.407   1_545  A
C901        H906   1.083       .  S
C903        C904   1.400       .  A
C903        H907   1.083       .  S
C904        H908   1.083       .  S
C909        C910   1.407       .  A
C909        C914   1.396       .  A
C909        H919   1.083       .  S
C910        C911   1.406   1_565  A
C910        C915   1.483       .  S
C911        C912   1.397       .  A
C911        H916   1.083       .  S
C912        C913   1.401   1_545  A
C912        H917   1.083       .  S
C913        C914   1.400       .  A
C914        H918   1.083       .  S
C915        C920   1.406       .  A
C915        C924   1.406   1_565  A
C920        C921   1.397       .  A
C920        H925   1.083       .  S
C921        C922   1.403       .  A
C921        H926   1.083       .  S
C922        C923   1.405   1_565  A
C923        C924   1.397       .  A
C923        H927   1.083       .  S
C924        H928   1.083       .  S
C929        C930   1.406   1_545  A
C929        C934   1.398       .  A
C929        H939   1.083       .  S
C930        C931   1.407       .  A
C930        C935   1.489       .  S
C931        C932   1.401       .  A
C931        H936   1.083       .  S
C932        C933   1.406   1_565  A
C932        H937   1.083       .  S
C933        C934   1.406       .  A
C934        H938   1.083       .  S
C935        C940   1.408       .  A
C935        C944   1.408   1_565  A
C940        C941   1.400       .  A
C940        H945   1.083       .  S
C941        C942   1.402       .  A
C941        H946   1.083       .  S
C942        C943   1.401   1_565  A
C943        C944   1.399       .  A
C943        H947   1.083       .  S
C944        H948   1.083       .  S
C949        C954   1.401       .  A
C949        H959   1.083       .  S
C950        C951   1.402       .  A
C950        C955   1.481       .  S
C951        C952   1.397       .  A
C951        H956   1.083   1_565  S
C952        C953   1.408       .  A
C952        H957   1.083   1_565  S
C954        H958   1.083       .  S
C955        C964   1.403   1_565  A
C960        C961   1.400       .  A
C960        H965   1.083       .  S
C961        H966   1.083       .  S
C962        C963   1.407   1_565  A
C963        C964   1.399       .  A
C963        H967   1.083       .  S
C964        H968   1.083       .  S
C969        C970   1.408       .  A
C969        C974   1.398       .  A
C969        H979   1.082       .  S
C970        C971   1.409       .  A
C970        C975   1.492       .  S
C971        C972   1.400       .  A
C971        H976   1.082   1_565  S
C972        C973   1.402       .  A
C972        H977   1.083   1_565  S
C973        C974   1.400       .  A
C974        H978   1.083       .  S
C975        C980   1.407       .  A
C975        C984   1.409       .  A
C980        C981   1.397       .  A
C980        H985   1.082       .  S
C981        C982   1.405       .  A
C981        H986   1.083       .  S
C982        C983   1.404       .  A
C983        C984   1.402       .  A
C983        H987   1.083       .  S
C984        H988   1.082   1_565  S
C989        C990   1.406       .  A
C989        C994   1.396       .  A
C989        H999   1.083       .  S
C990        C991   1.407   1_565  A
C990        C995   1.483       .  S
C991        C992   1.398       .  A
C991        H996   1.083       .  S
C992        C993   1.401   1_545  A
C992        H997   1.083       .  S
C993        C994   1.401       .  A
C994        H998   1.083       .  S
C995       C1000   1.405       .  A
C995       C1004   1.405       .  A
C1000      C1001   1.398       .  A
C1000      H1005   1.083   1_565  S
C1001      C1002   1.406       .  A
C1001      H1006   1.083   1_565  S
C1002      C1003   1.404       .  A
C1003      C1004   1.395       .  A
C1003      H1007   1.083       .  S
C1004      H1008   1.083       .  S
C1009      C1010   1.406       .  A
C1009      C1014   1.396       .  A
C1009      H1019   1.083       .  S
C1010      C1015   1.485       .  S
C1011      C1012   1.397       .  A
C1011      H1016   1.083       .  S
C1012      H1017   1.083       .  S
C1013      C1014   1.404       .  A
C1014      H1018   1.083       .  S
C1015      C1020   1.406       .  A
C1015      C1024   1.406       .  A
C1020      C1021   1.397       .  A
C1020      H1025   1.083       .  S
C1021      C1022   1.405       .  A
C1021      H1026   1.083       .  S
C1022      C1023   1.405       .  A
C1023      C1024   1.396       .  A
C1023      H1027   1.083       .  S
C1024      H1028   1.083       .  S
C1029      C1030   1.407       .  A
C1029      C1034   1.398       .  A
C1029      H1039   1.082       .  S
C1030      C1031   1.407       .  A
C1030      C1035   1.491       .  S
C1031      C1032   1.396       .  A
C1031      H1036   1.082       .  S
C1032      C1033   1.405       .  A
C1032      H1037   1.083       .  S
C1033      C1034   1.406       .  A
C1034      H1038   1.083       .  S
C1035      C1040   1.409       .  A
C1035      C1044   1.408       .  A
C1040      C1041   1.399       .  A
C1040      H1045   1.082       .  S
C1041      C1042   1.402       .  A
C1041      H1046   1.083       .  S
C1042      C1043   1.401       .  A
C1043      C1044   1.397       .  A
C1043      H1047   1.083       .  S
C1044      H1048   1.082       .  S
C1049      C1050   1.407       .  A
C1049      C1054   1.399       .  A
C1049      H1059   1.083       .  S
C1050      C1051   1.405       .  A
C1050      C1055   1.484       .  S
C1051      C1052   1.396       .  A
C1051      H1056   1.083       .  S
C1052      C1053   1.404       .  A
C1052      H1057   1.083       .  S
C1053      C1054   1.403       .  A
C1054      H1058   1.083       .  S
C1055      C1060   1.407       .  A
C1055      C1064   1.407       .  A
C1060      C1061   1.396       .  A
C1060      H1065   1.083       .  S
C1061      C1062   1.400       .  A
C1061      H1066   1.083       .  S
C1062      C1063   1.401       .  A
C1063      C1064   1.398       .  A
C1063      H1067   1.083       .  S
C1064      H1068   1.083       .  S
C1069      C1074   1.400       .  A
C1069      H1079   1.083       .  S
C1070      C1071   1.405       .  A
C1070      C1075   1.486       .  S
C1071      C1072   1.397       .  A
C1071      H1076   1.083       .  S
C1072      C1073   1.404       .  A
C1072      H1077   1.083       .  S
C1074      H1078   1.083       .  S
C1075      C1080   1.406       .  A
C1075      C1084   1.405       .  A
C1080      C1081   1.399       .  A
C1080      H1085   1.083       .  S
C1081      C1082   1.407       .  A
C1081      H1086   1.083       .  S
C1082      C1083   1.406       .  A
C1083      C1084   1.397       .  A
C1083      H1087   1.083       .  S
C1084      H1088   1.083       .  S
C1089      C1090   1.406       .  A
C1089      C1094   1.399       .  A
C1089      H1099   1.083       .  S
C1090      C1091   1.407       .  A
C1090      C1095   1.487       .  S
C1091      C1092   1.400       .  A
C1091      H1096   1.083       .  S
C1092      C1093   1.404       .  A
C1092      H1097   1.083       .  S
C1093      C1094   1.405       .  A
C1094      H1098   1.083       .  S
C1095      C1100   1.408       .  A
C1095      C1104   1.407       .  A
C1100      C1101   1.401       .  A
C1100      H1105   1.083       .  S
C1101      C1102   1.403       .  A
C1101      H1106   1.083       .  S
C1102      C1103   1.400       .  A
C1103      C1104   1.397       .  A
C1103      H1107   1.083       .  S
C1104      H1108   1.083       .  S
C1109      C1110   1.405       .  A
C1109      C1114   1.396       .  A
C1109      H1119   1.083       .  S
C1110      C1111   1.407       .  A
C1110      C1115   1.488       .  S
C1111      C1112   1.402       .  A
C1111      H1116   1.083       .  S
C1112      C1113   1.408       .  A
C1112      H1117   1.083       .  S
C1113      C1114   1.406       .  A
C1114      H1118   1.082       .  S
C1115      C1120   1.408       .  A
C1115      C1124   1.407       .  A
C1120      C1121   1.398       .  A
C1120      H1125   1.083       .  S
C1121      C1122   1.401       .  A
C1121      H1126   1.083       .  S
C1122      C1123   1.403       .  A
C1123      C1124   1.400       .  A
C1123      H1127   1.083       .  S
C1124      H1128   1.083       .  S
