geometry optimzed in LAMMPS
_audit_creation_date              2020-11-30 
_audit_creation_method            'lammps2cif' 
_symmetry_space_group_name_H-M    'P1' 
_symmetry_Int_Tables_number       1 
_symmetry_cell_setting            triclinic 
loop_ 
_symmetry_equiv_pos_as_xyz 
  x,y,z 
_cell_length_a                    27.50742249 
_cell_length_b                    27.15669205328361 
_cell_length_c                    26.87324026553113 
_cell_angle_alpha                 94.20483294928944 
_cell_angle_beta                  94.15239511548332 
_cell_angle_gamma                 110.22396767231012 
loop_ 
_atom_site_label 
_atom_site_type_symbol 
_atom_site_fract_x 
_atom_site_fract_y 
_atom_site_fract_z 
_atom_site_charge 
O1          O  0.44956724  0.20642417  0.31602799    -0.76300
C2          C  0.42073809  0.24665773  0.16631775     0.84700
O3          O  0.29640706  0.24795617  0.31357745    -0.77400
O4          O  0.25485121  0.14949897  0.14807000    -0.78900
O5          O  0.34335281  0.04063547  0.21888781    -0.78700
O6          O  0.42190062  0.12064727  0.32506802    -0.77300
Zn7        Zn  0.39932964  0.22803746  0.27354094     1.55700
O8          O  0.33228072  0.08188920  0.15272125    -0.78700
Cd9        Cd  0.34968135  0.09885015  0.27904934     1.59700
Cd10       Cd  0.27563100  0.17548762  0.27209777     1.59600
O11         O  0.29028217  0.06758372  0.32457080    -0.78700
O12         O  0.33914784  0.16353579  0.25247610    -1.89200
Cd13       Cd  0.32630370  0.15042890  0.17899995     1.59900
O14         O  0.24244129  0.11954242  0.31785722    -0.78700
O15         O  0.38159611  0.20627700  0.14956620    -0.77300
C16         C  0.33876096  0.28588559  0.32944658     0.85200
C17         C  0.45616149  0.16703051  0.33478015     0.84900
O18         O  0.43343390  0.26070651  0.21315255    -0.76300
C19         C  0.33662706  0.04192880  0.17135731     0.85700
O20         O  0.38247522  0.28468600  0.31761194    -0.76400
C21         C  0.25200666  0.08127319  0.33554308     0.85800
C22         C  0.21787319  0.16015663  0.16653603     0.86100
O23         O  0.21947772  0.17161342  0.21358739    -0.78800
N24         N  0.50232189  0.17786084  0.36953465    -0.01300
C25         C  0.50177431  0.16447266  0.41789455     0.01300
C26         C  0.03618259  0.20671579  0.44990586    -0.21600
C27         C  0.06050880  0.24560835  0.42141821    -0.21800
C28         C  0.04018305  0.22692584  0.37279105     0.01200
H29         H  0.04679075  0.20734856  0.48963093     0.15000
H30         H  0.09167145  0.28248561  0.43444327     0.15000
O31         O  0.25926054  0.43586983  0.21291166    -0.76300
C32         C  0.16326045  0.47027265  0.33060007     0.84700
O33         O  0.20937383  0.29144954  0.31997389    -0.77400
O34         O  0.06301410  0.30485075  0.33062931    -0.78900
O35         O  0.07202854  0.33909378  0.15384162    -0.78700
O36         O  0.19271015  0.41889406  0.15503983    -0.77300
Zn37       Zn  0.21714731  0.40565781  0.27168271     1.55700
O38         O  0.02940278  0.34856923  0.21944856    -0.78700
Cd39       Cd  0.14561350  0.35149126  0.17932184     1.59700
Cd40       Cd  0.14901763  0.27998909  0.26651895     1.59600
O41         O  0.16699841  0.29325979  0.14624063    -0.78700
O42         O  0.15058881  0.35094968  0.25144659    -1.89800
Cd43       Cd  0.08912165  0.36133699  0.27943734     1.59900
O44         O  0.16204111  0.23844042  0.20491985    -0.78700
O45         O  0.11669498  0.43686214  0.32041136    -0.77300
C46         C  0.25030335  0.33130920  0.33359197     0.85200
C47         C  0.24112351  0.43958119  0.16885376     0.84900
O48         O  0.20224898  0.46237696  0.31315583    -0.76300
C49         C  0.03083141  0.33914870  0.17215537     0.85700
O50         O  0.25916348  0.37572682  0.31639139    -0.76400
C51         C  0.17033455  0.25098830  0.16079120     0.85800
C52         C  0.06130195  0.25711763  0.33062595     0.86100
O53         O  0.08316340  0.23702609  0.29886707    -0.78800
N54         N  0.32588749  0.99559158  0.13694393    -0.01300
C55         C  0.34054747  0.00059712  0.08925289     0.01300
C56         C  0.29874818  0.47333115  0.05406495    -0.21600
C57         C  0.25780439  0.44880852  0.07963061    -0.21800
C58         C  0.27530239  0.46212910  0.12988613     0.01200
H59         H  0.29979603  0.46664030  0.01399535     0.15000
H60         H  0.21994852  0.42191092  0.06327653     0.15000
N61         N  0.17372010  0.51641312  0.36562515    -0.01300
C62         C  0.14756330  0.02167866  0.40531881     0.01300
C63         C  0.17712086  0.06442543  0.43864916    -0.21600
C64         C  0.22292050  0.08718739  0.41886433    -0.21800
C65         C  0.22008934  0.05715556  0.37434579     0.01200
H66         H  0.16563148  0.07865289  0.47282100     0.15000
H67         H  0.25326448  0.12418285  0.43326868     0.15000
N68         N  0.17669088  0.16465273  0.13278343    -0.01300
C69         C  0.16441071  0.13701887  0.08662013     0.01300
C70         C  0.17168034  0.17154019  0.04992128    -0.21600
C71         C  0.18041775  0.22042599  0.07370090    -0.21800
C72         C  0.18062729  0.21423769  0.12409853     0.01200
H73         H  0.15955079  0.16084854  0.01015263     0.15000
H74         H  0.17924685  0.25453860  0.05587291     0.15000
N75         N  0.33619548  0.32808356  0.36446127    -0.01300
C76         C  0.36049542  0.33543779  0.41171052     0.01300
C77         C  0.32337099  0.32344495  0.44597366    -0.21600
C78         C  0.27728264  0.32012281  0.42092438    -0.21800
C79         C  0.28763276  0.32668805  0.37227309     0.01200
H80         H  0.33080185  0.32861535  0.48648784     0.15000
H81         H  0.24171022  0.31782076  0.43703582     0.15000
N82         N  0.98562021  0.32682880  0.13681218    -0.01300
C83         C  0.49199092  0.34256198  0.09023241     0.01300
C84         C  0.46065257  0.30460653  0.05348600    -0.21600
C85         C  0.43308997  0.26332755  0.07771966    -0.21800
C86         C  0.44881860  0.27785982  0.12844180     0.01200
H87         H  0.45519680  0.30836157  0.01385128     0.15000
H88         H  0.40259332  0.22773842  0.06036467     0.15000
O89         O  0.42388508  0.38440829  0.47592054    -0.76300
C90         C  0.51178853  0.39722222  0.07986701     0.84700
O91         O  0.43186071  0.04843613  0.07995016    -0.77400
O92         O  0.11980897  0.04793822  0.05540889    -0.78900
O93         O  0.05712525  0.50290611  0.39788174    -0.78700
O94         O  0.42447904  0.42146046  0.40393726    -0.77300
Zn95       Zn  0.45268663  0.44452726  0.02843283     1.55700
O96         O  0.09200107  0.46369944  0.45251577    -0.78700
Cd97       Cd  0.48597540  0.49571778  0.42570840     1.59700
Cd98       Cd  0.49860336  0.06223870  0.03860613     1.59600
O99         O  0.47665831  0.06802701  0.40663184    -0.78700
O100        O  0.50061542  0.49851360  0.00051192    -1.89200
Cd101      Cd  0.06424218  0.48109162  0.01732576     1.59900
O102        O  0.49458070  0.11092306  0.48381612    -0.78700
O103        O  0.04772430  0.41227012  0.05143204    -0.77300
C104        C  0.39271308  0.50510632  0.07456889     0.85200
C105        C  0.40746719  0.38204217  0.42993178     0.84900
O106        O  0.48385667  0.42444229  0.08877528    -0.76300
C107        C  0.09505982  0.99017593  0.41528332     0.85700
O108        O  0.39528320  0.46378157  0.05149028    -0.76400
C109        C  0.48754289  0.11070313  0.43615019     0.85800
C110        C  0.11645251  0.09064346  0.07523453     0.86100
O111        O  0.07304059  0.09828616  0.07743384    -0.78800
O112        O  0.44956718  0.20642412  0.81602798    -0.76300
C113        C  0.42073806  0.24665766  0.66631767     0.84700
O114        O  0.29640711  0.24795621  0.81357752    -0.77400
O115        O  0.25485117  0.14949891  0.64807002    -0.78900
O116        O  0.34335283  0.04063541  0.71888783    -0.78700
O117        O  0.42190062  0.12064723  0.82506805    -0.77300
Zn118      Zn  0.39932961  0.22803743  0.77354095     1.55700
O119        O  0.33228075  0.08188914  0.65272127    -0.78700
Cd120      Cd  0.34968132  0.09885009  0.77904935     1.59700
Cd121      Cd  0.27563106  0.17548785  0.77209778     1.59600
O122        O  0.29028216  0.06758367  0.82457072    -0.78700
O123        O  0.33914780  0.16353576  0.75247612    -1.89200
Cd124      Cd  0.32630366  0.15042884  0.67899996     1.59900
O125        O  0.24244130  0.11954242  0.81785714    -0.78700
O126        O  0.38159605  0.20627693  0.64956614    -0.77300
C127        C  0.33876100  0.28588565  0.82944660     0.85200
C128        C  0.45616148  0.16703050  0.83478013     0.84900
O129        O  0.43343386  0.26070645  0.71315246    -0.76300
C130        C  0.33662715  0.04192876  0.67135733     0.85700
O131        O  0.38247525  0.28468615  0.81761189    -0.76400
C132        C  0.25200664  0.08127313  0.83554296     0.85800
C133        C  0.21787315  0.16015659  0.66653604     0.86100
O134        O  0.21947769  0.17161340  0.71358740    -0.78800
N135        N  0.50232190  0.17786087  0.86953462    -0.01300
C136        C  0.50177431  0.16447265  0.91789448     0.01300
C137        C  0.03618258  0.20671579  0.94990585    -0.21600
C138        C  0.06050868  0.24560825  0.92141818    -0.21800
C139        C  0.04018302  0.22692591  0.87279106     0.01200
H140        H  0.04679064  0.20734850  0.98963075     0.15000
H141        H  0.09167206  0.28248635  0.93444361     0.15000
O142        O  0.25926059  0.43586979  0.71291170    -0.76300
C143        C  0.16326044  0.47027260  0.83060008     0.84700
O144        O  0.20937379  0.29144948  0.81997391    -0.77400
O145        O  0.06301413  0.30485075  0.83062930    -0.78900
O146        O  0.07202853  0.33909377  0.65384163    -0.78700
O147        O  0.19271030  0.41889425  0.65503981    -0.77300
Zn148      Zn  0.21714728  0.40565775  0.77168273     1.55700
O149        O  0.02940281  0.34856918  0.71944861    -0.78700
Cd150      Cd  0.14561358  0.35149151  0.67932184     1.59700
Cd151      Cd  0.14901760  0.27998903  0.76651896     1.59600
O152        O  0.16699837  0.29325979  0.64624066    -0.78700
O153        O  0.15058887  0.35094964  0.75144657    -1.89800
Cd154      Cd  0.08912187  0.36133694  0.77943735     1.59900
O155        O  0.16204108  0.23844036  0.70491984    -0.78700
O156        O  0.11669498  0.43686208  0.82041138    -0.77300
C157        C  0.25030331  0.33130914  0.83359198     0.85200
C158        C  0.24112365  0.43958125  0.66885378     0.84900
O159        O  0.20224895  0.46237691  0.81315585    -0.76300
C160        C  0.03083139  0.33914864  0.67215540     0.85700
O161        O  0.25916344  0.37572676  0.81639141    -0.76400
C162        C  0.17033450  0.25098827  0.66079119     0.85800
C163        C  0.06130193  0.25711762  0.83062596     0.86100
O164        O  0.08316337  0.23702604  0.79886710    -0.78800
N165        N  0.32588758  0.99559152  0.63694395    -0.01300
C166        C  0.34054751  0.00059709  0.58925290     0.01300
C167        C  0.29874830  0.47333111  0.55406495    -0.21600
C168        C  0.25780449  0.44880849  0.57963062    -0.21800
C169        C  0.27530250  0.46212914  0.62988614     0.01200
H170        H  0.29979623  0.46664025  0.51399556     0.15000
H171        H  0.21994872  0.42191094  0.56327656     0.15000
N172        N  0.17372005  0.51641306  0.86562513    -0.01300
C173        C  0.14756338  0.02167872  0.90531884     0.01300
C174        C  0.17712091  0.06442563  0.93864910    -0.21600
C175        C  0.22292057  0.08718758  0.91886420    -0.21800
C176        C  0.22008943  0.05715559  0.87434578     0.01200
H177        H  0.16563163  0.07865309  0.97282072     0.15000
H178        H  0.25326446  0.12418300  0.93326842     0.15000
N179        N  0.17669086  0.16465270  0.63278343    -0.01300
C180        C  0.16441079  0.13701885  0.58662015     0.01300
C181        C  0.17168054  0.17154012  0.54992129    -0.21600
C182        C  0.18041774  0.22042585  0.57370082    -0.21800
C183        C  0.18062723  0.21423764  0.62409848     0.01200
H184        H  0.15955098  0.16084832  0.51015237     0.15000
H185        H  0.17924676  0.25453862  0.55587260     0.15000
N186        N  0.33619548  0.32808361  0.86446123    -0.01300
C187        C  0.36049547  0.33543784  0.91171047     0.01300
C188        C  0.32337100  0.32344490  0.94597342    -0.21600
C189        C  0.27728265  0.32012274  0.92092435    -0.21800
C190        C  0.28763274  0.32668800  0.87227307     0.01200
H191        H  0.33080209  0.32861537  0.98648867     0.15000
H192        H  0.24171022  0.31782066  0.93703581     0.15000
N193        N  0.98562021  0.32682879  0.63681218    -0.01300
C194        C  0.49199108  0.34256200  0.59023239     0.01300
C195        C  0.46065267  0.30460653  0.55348602    -0.21600
C196        C  0.43309017  0.26332747  0.57771965    -0.21800
C197        C  0.44881866  0.27785975  0.62844176     0.01200
H198        H  0.45519679  0.30836158  0.51385133     0.15000
H199        H  0.40259349  0.22773820  0.56036462     0.15000
O200        O  0.42388510  0.38440832  0.97592053    -0.76300
C201        C  0.51178859  0.39722234  0.57986700     0.84700
O202        O  0.43186068  0.04843607  0.57995017    -0.77400
O203        O  0.11980910  0.04793828  0.55540897    -0.78900
O204        O  0.05712522  0.50290604  0.89788175    -0.78700
O205        O  0.42447905  0.42146061  0.90393731    -0.77300
Zn206      Zn  0.45268662  0.44452727  0.52843284     1.55700
O207        O  0.09200104  0.46369935  0.95251577    -0.78700
Cd208      Cd  0.48597538  0.49571774  0.92570843     1.59700
Cd209      Cd  0.49860332  0.06223865  0.53860615     1.59600
O210        O  0.47665832  0.06802696  0.90663184    -0.78700
O211        O  0.50061545  0.49851375  0.50051192    -1.89200
Cd212      Cd  0.06424226  0.48109188  0.51732577     1.59900
O213        O  0.49458068  0.11092307  0.98381609    -0.78700
O214        O  0.04772454  0.41227036  0.55143216    -0.77300
C215        C  0.39271313  0.50510650  0.57456890     0.85200
C216        C  0.40746722  0.38204226  0.92993175     0.84900
O217        O  0.48385673  0.42444240  0.58877534    -0.76300
C218        C  0.09505984  0.99017592  0.91528335     0.85700
O219        O  0.39528324  0.46378177  0.55149026    -0.76400
C220        C  0.48754287  0.11070311  0.93615016     0.85800
C221        C  0.11645261  0.09064351  0.57523455     0.86100
O222        O  0.07304068  0.09828624  0.57743377    -0.78800
O223        O  0.44956305  0.70642418  0.31602713    -0.76300
C224        C  0.42073681  0.74665597  0.16631546     0.84700
O225        O  0.29640678  0.74795611  0.31357872    -0.77400
O226        O  0.25484722  0.64950049  0.14806925    -0.78900
O227        O  0.34335098  0.54063654  0.21888345    -0.78700
O228        O  0.42189762  0.62064695  0.32506508    -0.77300
Zn229      Zn  0.39932723  0.72803751  0.27353862     1.55700
O230        O  0.33227514  0.58189035  0.15271820    -0.78700
Cd231      Cd  0.34967852  0.59885006  0.27904575     1.59700
Cd232      Cd  0.27562853  0.67548794  0.27209779     1.59600
O233        O  0.29027978  0.56758259  0.32456806    -0.78700
O234        O  0.33914462  0.66353613  0.25247419    -1.89200
Cd235      Cd  0.32629961  0.65043024  0.17899806     1.59900
O236        O  0.24243997  0.61954266  0.31785808    -0.78700
O237        O  0.38159256  0.70627747  0.14956375    -0.77300
C238        C  0.33876089  0.78588601  0.32944634     0.85200
C239        C  0.45615749  0.66703058  0.33477902     0.84900
O240        O  0.43343325  0.76070397  0.21315026    -0.76300
C241        C  0.33662338  0.54193022  0.17135320     0.85700
O242        O  0.38247458  0.78468739  0.31760897    -0.76400
C243        C  0.25200519  0.58127269  0.33554256     0.85800
C244        C  0.21786945  0.66015774  0.16653616     0.86100
O245        O  0.21947466  0.67161420  0.21358774    -0.78800
N246        N  0.50231639  0.67786146  0.36953575    -0.01300
C247        C  0.50176488  0.66447367  0.41789571     0.01300
C248        C  0.03616738  0.70671873  0.44990921    -0.21600
C249        C  0.06049470  0.74561201  0.42142276    -0.21800
C250        C  0.04017537  0.72692799  0.37279441     0.01200
H251        H  0.04677153  0.70735243  0.48963452     0.15000
H252        H  0.09165485  0.78249124  0.43444994     0.15000
O253        O  0.25926264  0.93586602  0.21291624    -0.76300
C254        C  0.16326092  0.97027342  0.33060057     0.84700
O255        O  0.20937293  0.79144765  0.31997991    -0.77400
O256        O  0.06301022  0.80485248  0.33063189    -0.78900
O257        O  0.07203013  0.83909415  0.15384425    -0.78700
O258        O  0.19271240  0.91889728  0.15504605    -0.77300
Zn259      Zn  0.21714732  0.90565588  0.27168688     1.55700
O260        O  0.02940114  0.84856767  0.21944894    -0.78700
Cd261      Cd  0.14561466  0.85149374  0.17932707     1.59700
Cd262      Cd  0.14901596  0.77998823  0.26652515     1.59600
O263        O  0.16699857  0.79326242  0.14624625    -0.78700
O264        O  0.15058800  0.85094877  0.25145144    -1.89800
Cd265      Cd  0.08911997  0.86133722  0.27943895     1.59900
O266        O  0.16203681  0.73843990  0.20492361    -0.78700
O267        O  0.11669501  0.93686362  0.32041134    -0.77300
C268        C  0.25030274  0.83130733  0.33359745     0.85200
C269        C  0.24112622  0.93958053  0.16885915     0.84900
O270        O  0.20224944  0.96237645  0.31315774    -0.76300
C271        C  0.03083157  0.83914710  0.17215606     0.85700
O272        O  0.25916254  0.87572473  0.31639656    -0.76400
C273        C  0.17033151  0.75098922  0.16079540     0.85800
C274        C  0.06129802  0.75711945  0.33063036     0.86100
O275        O  0.08316127  0.73702722  0.29887385    -0.78800
N276        N  0.32588408  0.49559360  0.13693912    -0.01300
C277        C  0.34054396  0.50060047  0.08924821     0.01300
C278        C  0.29875192  0.97332581  0.05406988    -0.21600
C279        C  0.25780810  0.94880414  0.07963601    -0.21800
C280        C  0.27530579  0.96212677  0.12989136     0.01200
H281        H  0.29979980  0.96663381  0.01400127     0.15000
H282        H  0.21995244  0.92190603  0.06328245     0.15000
N283        N  0.17372094  0.01641430  0.36562518    -0.01300
C284        C  0.14756152  0.52167787  0.40531807     0.01300
C285        C  0.17711880  0.56442492  0.43864843    -0.21600
C286        C  0.22291910  0.58718656  0.41886412    -0.21800
C287        C  0.22008842  0.55715446  0.37434575     0.01200
H288        H  0.16562907  0.57865300  0.47281888     0.15000
H289        H  0.25326209  0.62418140  0.43326807     0.15000
N290        N  0.17668663  0.66465378  0.13278429    -0.01300
C291        C  0.16440700  0.63702134  0.08662023     0.01300
C292        C  0.17167575  0.67154382  0.04992257    -0.21600
C293        C  0.18041196  0.72042860  0.07370357    -0.21800
C294        C  0.18062207  0.71423879  0.12410094     0.01200
H295        H  0.15954632  0.66085289  0.01015295     0.15000
H296        H  0.17924068  0.75454211  0.05587660     0.15000
N297        N  0.33619662  0.82808324  0.36446274    -0.01300
C298        C  0.36049819  0.83543581  0.41171116     0.01300
C299        C  0.32337478  0.82343914  0.44597516    -0.21600
C300        C  0.27728532  0.82011705  0.42092812    -0.21800
C301        C  0.28763396  0.82668627  0.37227698     0.01200
H302        H  0.33080669  0.82860675  0.48648941     0.15000
H303        H  0.24171308  0.81781220  0.43704107     0.15000
N304        N  0.98562145  0.82682555  0.13681087    -0.01300
C305        C  0.49199456  0.84255782  0.09023102     0.01300
C306        C  0.46065813  0.80460171  0.05348415    -0.21600
C307        C  0.43309430  0.76332304  0.07771756    -0.21800
C308        C  0.44882021  0.77785636  0.12844004     0.01200
H309        H  0.45520392  0.80835639  0.01384885     0.15000
H310        H  0.40259824  0.72773367  0.06036215     0.15000
O311        O  0.42388634  0.88440750  0.47592230    -0.76300
C312        C  0.51179212  0.89721797  0.07986570     0.84700
O313        O  0.43185789  0.54843695  0.07994838    -0.77400
O314        O  0.11980641  0.54794142  0.05540567    -0.78900
O315        O  0.05712728  0.00290518  0.39788346    -0.78700
O316        O  0.42448204  0.92145891  0.40393834    -0.77300
Zn317      Zn  0.45269044  0.94452529  0.02843573     1.55700
O318        O  0.09200500  0.96369988  0.45251735    -0.78700
Cd319      Cd  0.48597785  0.99571633  0.42571025     1.59700
Cd320      Cd  0.49860075  0.56223971  0.03860568     1.59600
O321        O  0.47665482  0.56802861  0.40663175    -0.78700
O322        O  0.50061827  0.99851201  0.00051382    -1.89200
Cd323      Cd  0.06424506  0.98108945  0.01732724     1.59900
O324        O  0.49457694  0.61092387  0.48381645    -0.78700
O325        O  0.04772728  0.91226604  0.05143013    -0.77300
C326        C  0.39271711  0.00510440  0.07457346     0.85200
C327        C  0.40746942  0.88204093  0.42993310     0.84900
O328        O  0.48386165  0.92443886  0.08877638    -0.76300
C329        C  0.09505717  0.49017583  0.41528183     0.85700
O330        O  0.39528832  0.96377939  0.05149654    -0.76400
C331        C  0.48753815  0.61070420  0.43615067     0.85800
C332        C  0.11644947  0.59064551  0.07523367     0.86100
O333        O  0.07303722  0.59828698  0.07743492    -0.78800
O334        O  0.44956300  0.70642414  0.81602712    -0.76300
C335        C  0.42073687  0.74665591  0.66631549     0.84700
O336        O  0.29640679  0.74795605  0.81357874    -0.77400
O337        O  0.25484732  0.64950075  0.64806926    -0.78900
O338        O  0.34335094  0.54063650  0.71888347    -0.78700
O339        O  0.42189762  0.62064692  0.82506511    -0.77300
Zn340      Zn  0.39932721  0.72803748  0.77353864     1.55700
O341        O  0.33227510  0.58189038  0.65271827    -0.78700
Cd342      Cd  0.34967849  0.59885003  0.77904577     1.59700
Cd343      Cd  0.27562850  0.67548790  0.77209781     1.59600
O344        O  0.29027974  0.56758254  0.82456808    -0.78700
O345        O  0.33914464  0.66353623  0.75247421    -1.89200
Cd346      Cd  0.32629960  0.65043022  0.67899808     1.59900
O347        O  0.24243996  0.61954264  0.81785806    -0.78700
O348        O  0.38159273  0.70627732  0.64956376    -0.77300
C349        C  0.33876092  0.78588595  0.82944637     0.85200
C350        C  0.45615746  0.66703056  0.83477904     0.84900
O351        O  0.43343323  0.76070397  0.71315029    -0.76300
C352        C  0.33662336  0.54193025  0.67135323     0.85700
O353        O  0.38247459  0.78468734  0.81760900    -0.76400
C354        C  0.25200514  0.58127265  0.83554253     0.85800
C355        C  0.21786944  0.66015778  0.66653617     0.86100
O356        O  0.21947458  0.67161411  0.71358777    -0.78800
N357        N  0.50231638  0.67786153  0.86953579    -0.01300
C358        C  0.50176489  0.66447370  0.91789575     0.01300
C359        C  0.03616738  0.70671882  0.94990919    -0.21600
C360        C  0.06049470  0.74561201  0.92142274    -0.21800
C361        C  0.04017536  0.72692807  0.87279442     0.01200
H362        H  0.04677173  0.70735248  0.98963480     0.15000
H363        H  0.09165535  0.78249162  0.93445002     0.15000
O364        O  0.25926261  0.93586595  0.71291627    -0.76300
C365        C  0.16326098  0.97027352  0.83060055     0.84700
O366        O  0.20937290  0.79144775  0.81997993    -0.77400
O367        O  0.06301028  0.80485257  0.83063192    -0.78900
O368        O  0.07203018  0.83909439  0.65384426    -0.78700
O369        O  0.19271241  0.91889725  0.65504605    -0.77300
Zn370      Zn  0.21714731  0.90565588  0.77168690     1.55700
O371        O  0.02940109  0.84856757  0.71944897    -0.78700
Cd372      Cd  0.14561464  0.85149373  0.67932709     1.59700
Cd373      Cd  0.14901592  0.77998821  0.76652516     1.59600
O374        O  0.16699872  0.79326251  0.64624629    -0.78700
O375        O  0.15058801  0.85094887  0.75145146    -1.89800
Cd376      Cd  0.08911995  0.86133721  0.77943897     1.59900
O377        O  0.16203683  0.73843990  0.70492357    -0.78700
O378        O  0.11669508  0.93686367  0.82041138    -0.77300
C379        C  0.25030275  0.83130737  0.83359747     0.85200
C380        C  0.24112624  0.93958047  0.66885916     0.84900
O381        O  0.20224951  0.96237661  0.81315765    -0.76300
C382        C  0.03083155  0.83914713  0.67215608     0.85700
O383        O  0.25916259  0.87572478  0.81639659    -0.76400
C384        C  0.17033163  0.75098930  0.66079539     0.85800
C385        C  0.06129801  0.75711951  0.83063037     0.86100
O386        O  0.08316122  0.73702724  0.79887387    -0.78800
N387        N  0.32588413  0.49559372  0.63693910    -0.01300
C388        C  0.34054401  0.50060066  0.58924820     0.01300
C389        C  0.29875194  0.97332584  0.55406989    -0.21600
C390        C  0.25780809  0.94880425  0.57963604    -0.21800
C391        C  0.27530587  0.96212672  0.62989140     0.01200
H392        H  0.29979981  0.96663375  0.51400126     0.15000
H393        H  0.21995251  0.92190625  0.56328253     0.15000
N394        N  0.17372106  0.01641431  0.86562527    -0.01300
C395        C  0.14756150  0.52167781  0.90531808     0.01300
C396        C  0.17711882  0.56442490  0.93864836    -0.21600
C397        C  0.22291888  0.58718644  0.91886395    -0.21800
C398        C  0.22008836  0.55715448  0.87434570     0.01200
H399        H  0.16562897  0.57865312  0.97281911     0.15000
H400        H  0.25326284  0.62418252  0.93326829     0.15000
N401        N  0.17668662  0.66465379  0.63278428    -0.01300
C402        C  0.16440700  0.63702130  0.58662024     0.01300
C403        C  0.17167571  0.67154371  0.54992255    -0.21600
C404        C  0.18041189  0.72042857  0.57370343    -0.21800
C405        C  0.18062206  0.71423879  0.62410088     0.01200
H406        H  0.15954625  0.66085270  0.51015283     0.15000
H407        H  0.17924063  0.75454165  0.55587658     0.15000
N408        N  0.33619660  0.82808318  0.86446276    -0.01300
C409        C  0.36049817  0.83543577  0.91171119     0.01300
C410        C  0.32337474  0.82343908  0.94597518    -0.21600
C411        C  0.27728529  0.82011699  0.92092813    -0.21800
C412        C  0.28763395  0.82668621  0.87227699     0.01200
H413        H  0.33080665  0.82860670  0.98648943     0.15000
H414        H  0.24171307  0.81781216  0.93704106     0.15000
N415        N  0.98562142  0.82682550  0.63681088    -0.01300
C416        C  0.49199454  0.84255782  0.59023101     0.01300
C417        C  0.46065811  0.80460169  0.55348416    -0.21600
C418        C  0.43309419  0.76332291  0.57771755    -0.21800
C419        C  0.44882026  0.77785632  0.62844007     0.01200
H420        H  0.45520382  0.80835635  0.51384889     0.15000
H421        H  0.40259862  0.72773421  0.56036248     0.15000
O422        O  0.42388631  0.88440746  0.97592232    -0.76300
C423        C  0.51179212  0.89721802  0.57986570     0.84700
O424        O  0.43185797  0.54843710  0.57994845    -0.77400
O425        O  0.11980638  0.54794147  0.55540574    -0.78900
O426        O  0.05712727  0.00290513  0.89788348    -0.78700
O427        O  0.42448206  0.92145887  0.90393837    -0.77300
Zn428      Zn  0.45269041  0.94452525  0.52843575     1.55700
O429        O  0.09200500  0.96369981  0.95251733    -0.78700
Cd430      Cd  0.48597808  0.99571627  0.92571026     1.59700
Cd431      Cd  0.49860074  0.56223972  0.53860571     1.59600
O432        O  0.47665479  0.56802859  0.90663177    -0.78700
O433        O  0.50061820  0.99851200  0.50051381    -1.89200
Cd434      Cd  0.06424514  0.98108968  0.51732726     1.59900
O435        O  0.49457693  0.61092386  0.98381645    -0.78700
O436        O  0.04772726  0.91226607  0.55143012    -0.77300
C437        C  0.39271709  0.00510435  0.57457346     0.85200
C438        C  0.40746939  0.88204089  0.92993313     0.84900
O439        O  0.48386175  0.92443902  0.58877643    -0.76300
C440        C  0.09505715  0.49017577  0.91528184     0.85700
O441        O  0.39528829  0.96377932  0.55149655    -0.76400
C442        C  0.48753814  0.61070419  0.93615068     0.85800
C443        C  0.11644946  0.59064556  0.57523371     0.86100
O444        O  0.07303725  0.59828713  0.57743488    -0.78800
O445        O  0.94956722  0.20642418  0.31602800    -0.76300
C446        C  0.92073806  0.24665774  0.16631776     0.84700
O447        O  0.79640704  0.24795621  0.31357748    -0.77400
O448        O  0.75485120  0.14949897  0.14807005    -0.78900
O449        O  0.84335282  0.04063547  0.21888781    -0.78700
O450        O  0.92190060  0.12064729  0.32506804    -0.77300
Zn451      Zn  0.89932960  0.22803746  0.27354095     1.55700
O452        O  0.83228075  0.08188923  0.15272130    -0.78700
Cd453      Cd  0.84968131  0.09885015  0.27904934     1.59700
Cd454      Cd  0.77563095  0.17548762  0.27209778     1.59600
O455        O  0.79028217  0.06758374  0.32457077    -0.78700
O456        O  0.83914781  0.16353580  0.25247621    -1.89200
Cd457      Cd  0.82630368  0.15042892  0.17900021     1.59900
O458        O  0.74244125  0.11954241  0.31785724    -0.78700
O459        O  0.88159606  0.20627700  0.14956625    -0.77300
C460        C  0.83876097  0.28588558  0.32944661     0.85200
C461        C  0.95616148  0.16703052  0.33478016     0.84900
O462        O  0.93343386  0.26070652  0.21315256    -0.76300
C463        C  0.83662714  0.04192883  0.17135732     0.85700
O464        O  0.88247521  0.28468599  0.31761193    -0.76400
C465        C  0.75200668  0.08127320  0.33554310     0.85800
C466        C  0.71787315  0.16015663  0.16653606     0.86100
O467        O  0.71947767  0.17161342  0.21358740    -0.78800
N468        N  0.00232192  0.17786087  0.36953463    -0.01300
C469        C  0.00177435  0.16447266  0.41789453     0.01300
C470        C  0.53618255  0.20671580  0.44990587    -0.21600
C471        C  0.56050875  0.24560834  0.42141820    -0.21800
C472        C  0.54018302  0.22692581  0.37279105     0.01200
H473        H  0.54679071  0.20734858  0.48963094     0.15000
H474        H  0.59167143  0.28248564  0.43444326     0.15000
O475        O  0.75926058  0.43586987  0.21291170    -0.76300
C476        C  0.66326046  0.47027263  0.33060009     0.84700
O477        O  0.70937382  0.29144955  0.31997391    -0.77400
O478        O  0.56301405  0.30485065  0.33062933    -0.78900
O479        O  0.57202843  0.33909377  0.15384158    -0.78700
O480        O  0.69271025  0.41889399  0.15503977    -0.77300
Zn481      Zn  0.71714727  0.40565781  0.27168271     1.55700
O482        O  0.52940278  0.34856920  0.21944859    -0.78700
Cd483      Cd  0.64561346  0.35149126  0.17932183     1.59700
Cd484      Cd  0.64901759  0.27998908  0.26651895     1.59600
O485        O  0.66699836  0.29325978  0.14624062    -0.78700
O486        O  0.65058885  0.35094964  0.25144656    -1.89800
Cd487      Cd  0.58912177  0.36133671  0.27943734     1.59900
O488        O  0.66204107  0.23844042  0.20491985    -0.78700
O489        O  0.61669499  0.43686205  0.32041134    -0.77300
C490        C  0.75030337  0.33130920  0.33359198     0.85200
C491        C  0.74112360  0.43958120  0.16885377     0.84900
O492        O  0.70224899  0.46237698  0.31315585    -0.76300
C493        C  0.53083133  0.33914872  0.17215538     0.85700
O494        O  0.75916345  0.37572682  0.31639140    -0.76400
C495        C  0.67033449  0.25098829  0.16079120     0.85800
C496        C  0.56130188  0.25711754  0.33062594     0.86100
O497        O  0.58316335  0.23702602  0.29886707    -0.78800
N498        N  0.82588756  0.99559159  0.13694392    -0.01300
C499        C  0.84054747  0.00059714  0.08925286     0.01300
C500        C  0.79874827  0.47333111  0.05406494    -0.21600
C501        C  0.75780453  0.44880859  0.07963064    -0.21800
C502        C  0.77530246  0.46212912  0.12988614     0.01200
H503        H  0.79979618  0.46664028  0.01399554     0.15000
H504        H  0.71994823  0.42191068  0.06327635     0.15000
N505        N  0.67372008  0.51641310  0.36562517    -0.01300
C506        C  0.64756331  0.02167867  0.40531879     0.01300
C507        C  0.67712085  0.06442544  0.43864912    -0.21600
C508        C  0.72292051  0.08718741  0.41886434    -0.21800
C509        C  0.72008944  0.05715552  0.37434586     0.01200
H510        H  0.66563139  0.07865293  0.47282097     0.15000
H511        H  0.75326445  0.12418292  0.43326868     0.15000
N512        N  0.67669084  0.16465269  0.13278352    -0.01300
C513        C  0.66441085  0.13701884  0.08662021     0.01300
C514        C  0.67168065  0.17154021  0.04992157    -0.21600
C515        C  0.68041800  0.22042599  0.07370094    -0.21800
C516        C  0.68062728  0.21423765  0.12409859     0.01200
H517        H  0.65955073  0.16084820  0.01015168     0.15000
H518        H  0.67924710  0.25453846  0.05587296     0.15000
N519        N  0.83619555  0.32808353  0.36446135    -0.01300
C520        C  0.86049552  0.33543771  0.41171057     0.01300
C521        C  0.82337104  0.32344498  0.44597371    -0.21600
C522        C  0.77728269  0.32012284  0.42092439    -0.21800
C523        C  0.78763282  0.32668808  0.37227313     0.01200
H524        H  0.83080186  0.32861536  0.48648782     0.15000
H525        H  0.74171019  0.31782077  0.43703582     0.15000
N526        N  0.48562009  0.32682884  0.13681221    -0.01300
C527        C  0.99199105  0.34256192  0.09023237     0.01300
C528        C  0.96065264  0.30460641  0.05348604    -0.21600
C529        C  0.93309014  0.26332746  0.07771971    -0.21800
C530        C  0.94881864  0.27785980  0.12844182     0.01200
H531        H  0.95519670  0.30836143  0.01385111     0.15000
H532        H  0.90259334  0.22773809  0.06036468     0.15000
O533        O  0.92388513  0.38440833  0.47592058    -0.76300
C534        C  0.01178847  0.39722219  0.07986699     0.84700
O535        O  0.93186067  0.04843612  0.07995016    -0.77400
O536        O  0.61980909  0.04793822  0.05540891    -0.78900
O537        O  0.55712526  0.50290612  0.39788174    -0.78700
O538        O  0.92447905  0.42146044  0.40393727    -0.77300
Zn539      Zn  0.95268660  0.44452726  0.02843283     1.55700
O540        O  0.59200100  0.46369942  0.45251579    -0.78700
Cd541      Cd  0.98597537  0.49571778  0.42570840     1.59700
Cd542      Cd  0.99860329  0.06223867  0.03860612     1.59600
O543        O  0.97665860  0.06802703  0.40663184    -0.78700
O544        O  0.00061547  0.49851359  0.00051192    -1.89200
Cd545      Cd  0.56424215  0.48109162  0.01732577     1.59900
O546        O  0.99458062  0.11092306  0.48381612    -0.78700
O547        O  0.54772444  0.41227010  0.05143212    -0.77300
C548        C  0.89271310  0.50510633  0.07456888     0.85200
C549        C  0.90746730  0.38204213  0.42993179     0.84900
O550        O  0.98385658  0.42444222  0.08877533    -0.76300
C551        C  0.59505977  0.99017594  0.41528330     0.85700
O552        O  0.89528318  0.46378157  0.05149026    -0.76400
C553        C  0.98754294  0.11070313  0.43615018     0.85800
C554        C  0.61645267  0.09064349  0.07523454     0.86100
O555        O  0.57304078  0.09828630  0.07743375    -0.78800
O556        O  0.94956716  0.20642413  0.81602799    -0.76300
C557        C  0.92073812  0.24665763  0.66631768     0.84700
O558        O  0.79640709  0.24795623  0.81357753    -0.77400
O559        O  0.75485113  0.14949891  0.64807002    -0.78900
O560        O  0.84335279  0.04063542  0.71888783    -0.78700
O561        O  0.92190059  0.12064724  0.82506806    -0.77300
Zn562      Zn  0.89932957  0.22803743  0.77354094     1.55700
O563        O  0.83228071  0.08188914  0.65272128    -0.78700
Cd564      Cd  0.84968128  0.09885009  0.77904935     1.59700
Cd565      Cd  0.77563102  0.17548785  0.77209778     1.59600
O566        O  0.79028212  0.06758367  0.82457072    -0.78700
O567        O  0.83914776  0.16353576  0.75247612    -1.89200
Cd568      Cd  0.82630362  0.15042884  0.67899996     1.59900
O569        O  0.74244126  0.11954242  0.81785714    -0.78700
O570        O  0.88159608  0.20627692  0.64956614    -0.77300
C571        C  0.83876099  0.28588564  0.82944660     0.85200
C572        C  0.95616146  0.16703050  0.83478014     0.84900
O573        O  0.93343388  0.26070644  0.71315247    -0.76300
C574        C  0.83662712  0.04192877  0.67135734     0.85700
O575        O  0.88247524  0.28468613  0.81761187    -0.76400
C576        C  0.75200660  0.08127314  0.83554296     0.85800
C577        C  0.71787310  0.16015659  0.66653605     0.86100
O578        O  0.71947765  0.17161340  0.71358740    -0.78800
N579        N  0.00232190  0.17786087  0.86953461    -0.01300
C580        C  0.00177434  0.16447265  0.91789448     0.01300
C581        C  0.53618254  0.20671579  0.94990585    -0.21600
C582        C  0.56050864  0.24560826  0.92141818    -0.21800
C583        C  0.54018299  0.22692592  0.87279107     0.01200
H584        H  0.54679060  0.20734850  0.98963076     0.15000
H585        H  0.59167202  0.28248636  0.93444361     0.15000
O586        O  0.75926056  0.43586980  0.71291170    -0.76300
C587        C  0.66326050  0.47027260  0.83060010     0.84700
O588        O  0.70937377  0.29144948  0.81997392    -0.77400
O589        O  0.56301409  0.30485075  0.83062930    -0.78900
O590        O  0.57202850  0.33909377  0.65384165    -0.78700
O591        O  0.69271028  0.41889426  0.65503980    -0.77300
Zn592      Zn  0.71714727  0.40565776  0.77168273     1.55700
O593        O  0.52940278  0.34856918  0.71944861    -0.78700
Cd594      Cd  0.64561355  0.35149152  0.67932185     1.59700
Cd595      Cd  0.64901756  0.27998902  0.76651896     1.59600
O596        O  0.66699833  0.29325979  0.64624065    -0.78700
O597        O  0.65058897  0.35094964  0.75144658    -1.89800
Cd598      Cd  0.58912187  0.36133694  0.77943735     1.59900
O599        O  0.66204104  0.23844035  0.70491983    -0.78700
O600        O  0.61669502  0.43686210  0.82041139    -0.77300
C601        C  0.75030331  0.33130914  0.83359198     0.85200
C602        C  0.74112363  0.43958126  0.66885378     0.84900
O603        O  0.70224898  0.46237689  0.81315583    -0.76300
C604        C  0.53083137  0.33914865  0.67215541     0.85700
O605        O  0.75916341  0.37572677  0.81639141    -0.76400
C606        C  0.67033445  0.25098826  0.66079118     0.85800
C607        C  0.56130189  0.25711762  0.83062597     0.86100
O608        O  0.58316332  0.23702605  0.79886710    -0.78800
N609        N  0.82588760  0.99559156  0.63694396    -0.01300
C610        C  0.84054751  0.00059713  0.58925290     0.01300
C611        C  0.79874829  0.47333114  0.55406495    -0.21600
C612        C  0.75780441  0.44880844  0.57963061    -0.21800
C613        C  0.77530253  0.46212914  0.62988616     0.01200
H614        H  0.79979618  0.46664025  0.51399560     0.15000
H615        H  0.71994922  0.42191128  0.56327682     0.15000
N616        N  0.67372016  0.51641305  0.86562521    -0.01300
C617        C  0.64756335  0.02167871  0.90531883     0.01300
C618        C  0.67712087  0.06442563  0.93864910    -0.21600
C619        C  0.72292052  0.08718758  0.91886420    -0.21800
C620        C  0.72008939  0.05715560  0.87434578     0.01200
H621        H  0.66563157  0.07865310  0.97282073     0.15000
H622        H  0.75326441  0.12418300  0.93326842     0.15000
N623        N  0.67669082  0.16465269  0.63278344    -0.01300
C624        C  0.66441080  0.13701884  0.58662013     0.01300
C625        C  0.67168060  0.17154016  0.54992142    -0.21600
C626        C  0.68041794  0.22042584  0.57370084    -0.21800
C627        C  0.68062724  0.21423765  0.62409849     0.01200
H628        H  0.65955067  0.16084810  0.51015158     0.15000
H629        H  0.67924703  0.25453893  0.55587249     0.15000
N630        N  0.83619552  0.32808362  0.86446125    -0.01300
C631        C  0.86049552  0.33543784  0.91171049     0.01300
C632        C  0.82337103  0.32344495  0.94597344    -0.21600
C633        C  0.77728267  0.32012275  0.92092434    -0.21800
C634        C  0.78763276  0.32668802  0.87227306     0.01200
H635        H  0.83080209  0.32861542  0.98648866     0.15000
H636        H  0.74171017  0.31782066  0.93703577     0.15000
N637        N  0.48562020  0.32682878  0.63681218    -0.01300
C638        C  0.99199106  0.34256200  0.59023239     0.01300
C639        C  0.96065262  0.30460654  0.55348602    -0.21600
C640        C  0.93309013  0.26332748  0.57771966    -0.21800
C641        C  0.94881867  0.27785975  0.62844176     0.01200
H642        H  0.95519674  0.30836159  0.51385133     0.15000
H643        H  0.90259345  0.22773817  0.56036461     0.15000
O644        O  0.92388536  0.38440827  0.97592049    -0.76300
C645        C  0.01178859  0.39722234  0.57986700     0.84700
O646        O  0.93186064  0.04843607  0.57995017    -0.77400
O647        O  0.61980913  0.04793826  0.55540895    -0.78900
O648        O  0.55712522  0.50290606  0.89788174    -0.78700
O649        O  0.92447905  0.42146062  0.90393733    -0.77300
Zn650      Zn  0.95268659  0.44452728  0.52843284     1.55700
O651        O  0.59200102  0.46369936  0.95251576    -0.78700
Cd652      Cd  0.98597535  0.49571775  0.92570843     1.59700
Cd653      Cd  0.99860327  0.06223864  0.53860614     1.59600
O654        O  0.97665857  0.06802700  0.90663184    -0.78700
O655        O  0.00061550  0.49851372  0.50051191    -1.89200
Cd656      Cd  0.56424221  0.48109189  0.51732577     1.59900
O657        O  0.99458061  0.11092307  0.98381609    -0.78700
O658        O  0.54772452  0.41227036  0.55143214    -0.77300
C659        C  0.89271312  0.50510652  0.57456887     0.85200
C660        C  0.90746736  0.38204223  0.92993174     0.84900
O661        O  0.98385672  0.42444240  0.58877532    -0.76300
C662        C  0.59505981  0.99017592  0.91528334     0.85700
O663        O  0.89528321  0.46378176  0.55149026    -0.76400
C664        C  0.98754292  0.11070311  0.93615015     0.85800
C665        C  0.61645266  0.09064349  0.57523455     0.86100
O666        O  0.57304075  0.09828625  0.57743377    -0.78800
O667        O  0.94956303  0.70642418  0.31602714    -0.76300
C668        C  0.92073687  0.74665598  0.16631548     0.84700
O669        O  0.79640679  0.74795611  0.31357872    -0.77400
O670        O  0.75484718  0.64950049  0.14806925    -0.78900
O671        O  0.84335095  0.54063650  0.21888346    -0.78700
O672        O  0.92189766  0.62064696  0.32506511    -0.77300
Zn673      Zn  0.89932719  0.72803751  0.27353862     1.55700
O674        O  0.83227538  0.58189040  0.15271818    -0.78700
Cd675      Cd  0.84967873  0.59885006  0.27904575     1.59700
Cd676      Cd  0.77562849  0.67548794  0.27209779     1.59600
O677        O  0.79027979  0.56758262  0.32456804    -0.78700
O678        O  0.83914461  0.66353611  0.25247420    -1.89200
Cd679      Cd  0.82629960  0.65043023  0.17899805     1.59900
O680        O  0.74243993  0.61954266  0.31785807    -0.78700
O681        O  0.88159271  0.70627739  0.14956375    -0.77300
C682        C  0.83876091  0.78588601  0.32944635     0.85200
C683        C  0.95615749  0.66703060  0.33477904     0.84900
O684        O  0.93343322  0.76070403  0.21315028    -0.76300
C685        C  0.83662347  0.54193021  0.17135321     0.85700
O686        O  0.88247458  0.78468740  0.31760898    -0.76400
C687        C  0.75200516  0.58127269  0.33554253     0.85800
C688        C  0.71786941  0.66015774  0.16653616     0.86100
O689        O  0.71947461  0.67161420  0.21358774    -0.78800
N690        N  0.00231641  0.67786147  0.36953575    -0.01300
C691        C  0.00176491  0.66447367  0.41789571     0.01300
C692        C  0.53616735  0.70671873  0.44990919    -0.21600
C693        C  0.56049463  0.74561196  0.42142274    -0.21800
C694        C  0.54017534  0.72692800  0.37279441     0.01200
H695        H  0.54677164  0.70735235  0.48963464     0.15000
H696        H  0.59165519  0.78249150  0.43445003     0.15000
O697        O  0.75926272  0.93586606  0.21291628    -0.76300
C698        C  0.66326094  0.97027341  0.33060056     0.84700
O699        O  0.70937289  0.79144765  0.31997991    -0.77400
O700        O  0.56301017  0.80485248  0.33063189    -0.78900
O701        O  0.57203004  0.83909415  0.15384424    -0.78700
O702        O  0.69271252  0.91889721  0.15504600    -0.77300
Zn703      Zn  0.71714752  0.90565588  0.27168687     1.55700
O704        O  0.52940108  0.84856767  0.21944895    -0.78700
Cd705      Cd  0.64561463  0.85149374  0.17932706     1.59700
Cd706      Cd  0.64901591  0.77998823  0.26652515     1.59600
O707        O  0.66699859  0.79326242  0.14624626    -0.78700
O708        O  0.65058802  0.85094880  0.25145144    -1.89800
Cd709      Cd  0.58911993  0.86133723  0.27943895     1.59900
O710        O  0.66203683  0.73843991  0.20492361    -0.78700
O711        O  0.61669501  0.93686366  0.32041136    -0.77300
C712        C  0.75030271  0.83130731  0.33359746     0.85200
C713        C  0.74112632  0.93958053  0.16885915     0.84900
O714        O  0.70224945  0.96237640  0.31315770    -0.76300
C715        C  0.53083149  0.83914711  0.17215606     0.85700
O716        O  0.75916256  0.87572472  0.31639658    -0.76400
C717        C  0.67033159  0.75098926  0.16079542     0.85800
C718        C  0.56129798  0.75711945  0.33063036     0.86100
O719        O  0.58316122  0.73702722  0.29887384    -0.78800
N720        N  0.82588417  0.49559359  0.13693913    -0.01300
C721        C  0.84054402  0.50060047  0.08924823     0.01300
C722        C  0.79875191  0.97332583  0.05406987    -0.21600
C723        C  0.75780802  0.94880405  0.07963600    -0.21800
C724        C  0.77530591  0.96212675  0.12989139     0.01200
H725        H  0.79979973  0.96663380  0.01400126     0.15000
H726        H  0.71995309  0.92190645  0.06328279     0.15000
N727        N  0.67372105  0.01641426  0.36562524    -0.01300
C728        C  0.64756158  0.52167785  0.40531818     0.01300
C729        C  0.67711895  0.56442486  0.43864845    -0.21600
C730        C  0.72291914  0.58718658  0.41886412    -0.21800
C731        C  0.72008841  0.55715448  0.37434573     0.01200
H732        H  0.66562910  0.57865326  0.47281953     0.15000
H733        H  0.75326218  0.62418152  0.43326799     0.15000
N734        N  0.67668661  0.66465378  0.13278428    -0.01300
C735        C  0.66440701  0.63702134  0.08662023     0.01300
C736        C  0.67167570  0.67154382  0.04992257    -0.21600
C737        C  0.68041191  0.72042859  0.07370356    -0.21800
C738        C  0.68062207  0.71423880  0.12410094     0.01200
H739        H  0.65954628  0.66085288  0.01015294     0.15000
H740        H  0.67924065  0.75454213  0.05587659     0.15000
N741        N  0.83619659  0.82808324  0.36446274    -0.01300
C742        C  0.86049816  0.83543583  0.41171117     0.01300
C743        C  0.82337474  0.82343915  0.44597516    -0.21600
C744        C  0.77728528  0.82011705  0.42092811    -0.21800
C745        C  0.78763393  0.82668625  0.37227698     0.01200
H746        H  0.83080664  0.82860676  0.48648941     0.15000
H747        H  0.74171305  0.81781221  0.43704105     0.15000
N748        N  0.48562136  0.82682557  0.13681089    -0.01300
C749        C  0.99199459  0.84255782  0.09023100     0.01300
C750        C  0.96065809  0.80460172  0.05348415    -0.21600
C751        C  0.93309427  0.76332307  0.07771758    -0.21800
C752        C  0.94882024  0.77785637  0.12844005     0.01200
H753        H  0.95520384  0.80835641  0.01384886     0.15000
H754        H  0.90259817  0.72773370  0.06036218     0.15000
O755        O  0.92388630  0.88440750  0.47592230    -0.76300
C756        C  0.01179213  0.89721798  0.07986570     0.84700
O757        O  0.93185793  0.54843696  0.07994834    -0.77400
O758        O  0.61980643  0.54794140  0.05540566    -0.78900
O759        O  0.55712720  0.00290519  0.39788348    -0.78700
O760        O  0.92448205  0.92145893  0.40393835    -0.77300
Zn761      Zn  0.95269040  0.94452529  0.02843573     1.55700
O762        O  0.59200497  0.96369989  0.45251733    -0.78700
Cd763      Cd  0.98597810  0.99571632  0.42571025     1.59700
Cd764      Cd  0.99860097  0.56223970  0.03860568     1.59600
O765        O  0.97665474  0.56802860  0.40663175    -0.78700
O766        O  0.00061828  0.99851200  0.00051381    -1.89200
Cd767      Cd  0.56424504  0.98108946  0.01732724     1.59900
O768        O  0.99457722  0.61092387  0.48381644    -0.78700
O769        O  0.54772725  0.91226603  0.05143011    -0.77300
C770        C  0.89271707  0.00510440  0.07457344     0.85200
C771        C  0.90746938  0.88204095  0.42993311     0.84900
O772        O  0.98386164  0.92443885  0.08877637    -0.76300
C773        C  0.59505718  0.49017586  0.41528189     0.85700
O774        O  0.89528828  0.96377939  0.05149653    -0.76400
C775        C  0.98753822  0.61070420  0.43615068     0.85800
C776        C  0.61644949  0.59064548  0.07523366     0.86100
O777        O  0.57303723  0.59828697  0.07743488    -0.78800
O778        O  0.94956298  0.70642414  0.81602714    -0.76300
C779        C  0.92073683  0.74665591  0.66631549     0.84700
O780        O  0.79640677  0.74795604  0.81357873    -0.77400
O781        O  0.75484728  0.64950074  0.64806926    -0.78900
O782        O  0.84335091  0.54063646  0.71888348    -0.78700
O783        O  0.92189767  0.62064692  0.82506515    -0.77300
Zn784      Zn  0.89932720  0.72803749  0.77353864     1.55700
O785        O  0.83227535  0.58189042  0.65271824    -0.78700
Cd786      Cd  0.84967872  0.59885002  0.77904577     1.59700
Cd787      Cd  0.77562875  0.67548789  0.77209780     1.59600
O788        O  0.79027976  0.56758258  0.82456806    -0.78700
O789        O  0.83914488  0.66353621  0.75247420    -1.89200
Cd790      Cd  0.82629958  0.65043020  0.67899807     1.59900
O791        O  0.74243997  0.61954266  0.81785805    -0.78700
O792        O  0.88159268  0.70627732  0.64956376    -0.77300
C793        C  0.83876088  0.78588595  0.82944637     0.85200
C794        C  0.95615747  0.66703057  0.83477906     0.84900
O795        O  0.93343319  0.76070397  0.71315029    -0.76300
C796        C  0.83662345  0.54193023  0.67135323     0.85700
O797        O  0.88247455  0.78468734  0.81760900    -0.76400
C798        C  0.75200517  0.58127269  0.83554254     0.85800
C799        C  0.71786941  0.66015778  0.66653619     0.86100
O800        O  0.71947461  0.67161411  0.71358780    -0.78800
N801        N  0.00231639  0.67786154  0.86953579    -0.01300
C802        C  0.00176492  0.66447371  0.91789575     0.01300
C803        C  0.53616734  0.70671882  0.94990920    -0.21600
C804        C  0.56049465  0.74561201  0.92142274    -0.21800
C805        C  0.54017533  0.72692808  0.87279443     0.01200
H806        H  0.54677169  0.70735247  0.98963480     0.15000
H807        H  0.59165531  0.78249162  0.93445003     0.15000
O808        O  0.75926268  0.93586599  0.71291628    -0.76300
C809        C  0.66326104  0.97027351  0.83060055     0.84700
O810        O  0.70937286  0.79144775  0.81997993    -0.77400
O811        O  0.56301023  0.80485257  0.83063192    -0.78900
O812        O  0.57203016  0.83909441  0.65384427    -0.78700
O813        O  0.69271250  0.91889716  0.65504601    -0.77300
Zn814      Zn  0.71714750  0.90565585  0.77168690     1.55700
O815        O  0.52940105  0.84856757  0.71944897    -0.78700
Cd816      Cd  0.64561461  0.85149372  0.67932709     1.59700
Cd817      Cd  0.64901588  0.77998818  0.76652516     1.59600
O818        O  0.66699867  0.79326251  0.64624629    -0.78700
O819        O  0.65058797  0.85094874  0.75145147    -1.89800
Cd820      Cd  0.58911991  0.86133720  0.77943897     1.59900
O821        O  0.66203679  0.73843989  0.70492357    -0.78700
O822        O  0.61669514  0.93686367  0.82041135    -0.77300
C823        C  0.75030272  0.83130736  0.83359748     0.85200
C824        C  0.74112631  0.93958048  0.66885917     0.84900
O825        O  0.70224961  0.96237660  0.81315769    -0.76300
C826        C  0.53083154  0.83914714  0.67215608     0.85700
O827        O  0.75916261  0.87572478  0.81639660    -0.76400
C828        C  0.67033159  0.75098930  0.66079539     0.85800
C829        C  0.56129797  0.75711952  0.83063038     0.86100
O830        O  0.58316118  0.73702723  0.79887387    -0.78800
N831        N  0.82588417  0.49559368  0.63693911    -0.01300
C832        C  0.84054402  0.50060066  0.58924820     0.01300
C833        C  0.79875196  0.97332586  0.55406989    -0.21600
C834        C  0.75780828  0.94880425  0.57963609    -0.21800
C835        C  0.77530590  0.96212672  0.62989140     0.01200
H836        H  0.79979986  0.96663381  0.51400120     0.15000
H837        H  0.71995198  0.92190569  0.56328225     0.15000
N838        N  0.67372106  0.01641430  0.86562526    -0.01300
C839        C  0.64756155  0.52167782  0.90531811     0.01300
C840        C  0.67711891  0.56442481  0.93864842    -0.21600
C841        C  0.72291911  0.58718658  0.91886413    -0.21800
C842        C  0.72008843  0.55715451  0.87434574     0.01200
H843        H  0.66562902  0.57865307  0.97281939     0.15000
H844        H  0.75326219  0.62418162  0.93326813     0.15000
N845        N  0.67668658  0.66465379  0.63278429    -0.01300
C846        C  0.66440702  0.63702131  0.58662024     0.01300
C847        C  0.67167567  0.67154372  0.54992255    -0.21600
C848        C  0.68041185  0.72042857  0.57370344    -0.21800
C849        C  0.68062201  0.71423879  0.62410088     0.01200
H850        H  0.65954620  0.66085269  0.51015282     0.15000
H851        H  0.67924058  0.75454165  0.55587658     0.15000
N852        N  0.83619657  0.82808318  0.86446277    -0.01300
C853        C  0.86049816  0.83543576  0.91171118     0.01300
C854        C  0.82337473  0.82343911  0.94597518    -0.21600
C855        C  0.77728525  0.82011699  0.92092813    -0.21800
C856        C  0.78763391  0.82668621  0.87227699     0.01200
H857        H  0.83080664  0.82860671  0.98648943     0.15000
H858        H  0.74171303  0.81781216  0.93704106     0.15000
N859        N  0.48562143  0.82682550  0.63681087    -0.01300
C860        C  0.99199451  0.84255782  0.59023102     0.01300
C861        C  0.96065806  0.80460168  0.55348417    -0.21600
C862        C  0.93309421  0.76332294  0.57771757    -0.21800
C863        C  0.94882022  0.77785633  0.62844007     0.01200
H864        H  0.95520382  0.80835632  0.51384888     0.15000
H865        H  0.90259848  0.72773389  0.56036235     0.15000
O866        O  0.92388632  0.88440745  0.97592231    -0.76300
C867        C  0.01179212  0.89721803  0.57986570     0.84700
O868        O  0.93185800  0.54843711  0.57994841    -0.77400
O869        O  0.61980640  0.54794144  0.55540573    -0.78900
O870        O  0.55712725  0.00290514  0.89788347    -0.78700
O871        O  0.92448207  0.92145886  0.90393837    -0.77300
Zn872      Zn  0.95269038  0.94452525  0.52843574     1.55700
O873        O  0.59200495  0.96369981  0.95251733    -0.78700
Cd874      Cd  0.98597807  0.99571627  0.92571026     1.59700
Cd875      Cd  0.99860096  0.56223971  0.53860571     1.59600
O876        O  0.97665472  0.56802858  0.90663177    -0.78700
O877        O  0.00061825  0.99851200  0.50051382    -1.89200
Cd878      Cd  0.56424510  0.98108968  0.51732725     1.59900
O879        O  0.99457721  0.61092386  0.98381644    -0.78700
O880        O  0.54772724  0.91226607  0.55143010    -0.77300
C881        C  0.89271706  0.00510435  0.57457346     0.85200
C882        C  0.90746944  0.88204085  0.92993310     0.84900
O883        O  0.98386174  0.92443901  0.58877642    -0.76300
C884        C  0.59505715  0.49017579  0.91528184     0.85700
O885        O  0.89528825  0.96377933  0.55149655    -0.76400
C886        C  0.98753821  0.61070419  0.93615069     0.85800
C887        C  0.61644949  0.59064554  0.57523370     0.86100
O888        O  0.57303727  0.59828712  0.57743484    -0.78800
loop_ 
_geom_bond_atom_site_label_1 
_geom_bond_atom_site_label_2 
_geom_bond_distance 
_geom_bond_site_symmetry_2 
_ccdc_geom_bond_type 
O1           C17   1.277       .  A
O1           Zn7   1.997       .  S
C2           O18   1.275       .  A
C2           O15   1.267       .  A
C2           C86   1.462       .  S
O3           C16   1.278       .  A
O3          Cd10   2.062       .  S
O4           C22   1.273       .  A
O4          Cd13   2.069       .  S
O5           C19   1.282       .  A
O5           Cd9   2.130       .  S
O6           C17   1.280       .  A
O6           Cd9   2.133       .  S
Zn7          O18   2.039       .  S
Zn7          O20   2.071       .  S
Zn7          O12   1.960       .  S
O8           C19   1.266       .  A
O8          Cd13   2.006       .  S
Cd9          O11   2.090       .  S
Cd9          O12   2.046       .  S
Cd10         O14   2.033       .  S
Cd10         O23   2.093       .  S
Cd10         O12   1.984       .  S
O11          C21   1.278       .  A
O12         Cd13   1.965       .  S
Cd13         O15   1.999       .  S
O14          C21   1.272       .  A
C16          O20   1.276       .  A
C16          N75   1.453       .  S
C17          N24   1.449       .  S
C19          N54   1.435   1_545  S
C21          C65   1.457       .  S
C22          O23   1.274       .  A
C22          N68   1.444       .  S
N24          C25   1.375       .  A
N24         C472   1.370       .  A
C25         C109   1.505       .  S
C25         C470   1.392       .  A
C26          C27   1.361       .  A
C26         C469   1.392       .  A
C26          H29   1.083       .  S
C27          C28   1.371       .  A
C27          H30   1.083       .  S
C28          C52   1.482       .  S
C28         N468   1.370       .  A
O31          C47   1.276       .  A
O31         Zn37   2.075       .  S
C32          O48   1.278       .  A
C32          O45   1.284       .  A
C32          N61   1.441       .  S
O33          C46   1.270       .  A
O33         Cd40   2.037       .  S
O34          C52   1.281       .  A
O34         Cd43   2.110       .  S
O35          C49   1.268       .  A
O35         Cd39   1.993       .  S
O36          C47   1.268       .  A
O36         Cd39   2.028       .  S
Zn37         O48   2.008       .  S
Zn37         O50   2.008       .  S
Zn37         O42   1.927       .  S
O38          C49   1.284       .  A
O38         Cd43   2.135       .  S
Cd39         O41   2.037       .  S
Cd39         O42   1.935       .  S
Cd40         O44   2.057       .  S
Cd40         O53   2.077       .  S
Cd40         O42   1.985       .  S
O41          C51   1.270       .  A
O42         Cd43   1.997       .  S
Cd43         O45   2.113       .  S
O44          C51   1.272       .  A
C46          O50   1.274       .  A
C46          C79   1.451       .  S
C47          C58   1.481       .  S
C49          N82   1.434   1_455  S
C51          C72   1.463       .  S
C52          O53   1.273       .  A
N54          C55   1.373   1_565  A
N54         C280   1.364       .  A
C55         C326   1.482       .  S
C55         C278   1.384   1_545  A
C56          C57   1.358       .  A
C56         C277   1.384       .  A
C56          H59   1.083       .  S
C57          C58   1.379       .  A
C57          H60   1.083       .  S
C58         N276   1.364       .  A
N61         C287   1.360       .  A
N61         C284   1.355       .  A
C62         C107   1.458   1_545  S
C62         N283   1.355       .  A
C62          C63   1.379       .  A
C63          C64   1.363       .  A
C63          H66   1.080       .  S
C64          C65   1.379       .  A
C64          H67   1.083       .  S
C65         N283   1.360       .  A
N68          C72   1.352       .  A
N68          C69   1.358       .  A
C69         C110   1.468       .  S
C69          C70   1.388       .  A
C70          C71   1.364       .  A
C70          H73   1.083       .  S
C71          C72   1.377       .  A
C71          H74   1.083       .  S
N75          C79   1.355       .  A
N75          C76   1.359       .  A
C76         C105   1.483       .  S
C76          C77   1.395       .  A
C77          C78   1.363       .  A
C77          H80   1.083       .  S
C78          C79   1.369       .  A
C78          H81   1.083       .  S
N82         C530   1.355       .  A
N82         C527   1.356       .  A
C83          C90   1.450       .  S
C83         N526   1.356       .  A
C83          C84   1.376       .  A
C84          C85   1.359       .  A
C84          H87   1.082       .  S
C85          C86   1.385       .  A
C85          H88   1.083       .  S
C86         N526   1.355       .  A
O89         C105   1.274       .  A
O89        Zn206   1.972       .  S
C90         O106   1.260       .  A
C90         O547   1.266       .  A
O91         C326   1.281       .  A
O91         Cd98   2.151       .  S
O92         C110   1.276       .  A
O92        Cd323   2.064   1_545  S
O93         C329   1.276       .  A
O93        Cd541   2.097   1_455  S
O94         C105   1.290       .  A
O94         Cd97   2.144       .  S
Zn95        O106   1.978       .  S
Zn95        O108   1.953       .  S
Zn95        O200   1.972   1_554  S
Zn95        O100   1.849       .  S
O96         C329   1.265       .  A
O96        Cd212   2.040       .  S
Cd97        O537   2.097       .  S
Cd97        O321   2.159       .  S
Cd97        O211   2.012       .  S
Cd98        O213   2.072   1_554  S
Cd98        O555   2.096       .  S
Cd98        O322   1.965   1_545  S
O99         C109   1.286       .  A
O99        Cd319   2.159   1_545  S
O100       Cd208   2.012   1_554  S
O100       Cd320   1.965       .  S
O100       Cd545   1.995       .  S
Cd101       O103   2.065       .  S
Cd101       O314   2.064       .  S
Cd101       O207   2.040   1_554  S
Cd101       O544   1.995       .  S
O102        C109   1.281       .  A
O102       Cd209   2.072       .  S
O103        C534   1.266       .  A
C104        O108   1.268       .  A
C104        O313   1.281       .  A
C104        C277   1.482       .  S
C107        O315   1.276   1_565  A
C107        O318   1.265       .  A
C110        O111   1.285       .  A
O111       Cd542   2.096   1_455  S
O112        C128   1.277       .  A
O112       Zn118   1.997       .  S
C113        O129   1.275       .  A
C113        O126   1.267       .  A
C113        C197   1.462       .  S
O114        C127   1.278       .  A
O114       Cd121   2.062       .  S
O115        C133   1.273       .  A
O115       Cd124   2.069       .  S
O116        C130   1.282       .  A
O116       Cd120   2.130       .  S
O117        C128   1.280       .  A
O117       Cd120   2.133       .  S
Zn118       O129   2.039       .  S
Zn118       O131   2.071       .  S
Zn118       O123   1.960       .  S
O119        C130   1.266       .  A
O119       Cd124   2.006       .  S
Cd120       O122   2.090       .  S
Cd120       O123   2.046       .  S
Cd121       O125   2.033       .  S
Cd121       O134   2.093       .  S
Cd121       O123   1.984       .  S
O122        C132   1.278       .  A
O123       Cd124   1.965       .  S
Cd124       O126   1.999       .  S
O125        C132   1.272       .  A
C127        O131   1.276       .  A
C127        N186   1.453       .  S
C128        N135   1.449       .  S
C130        N165   1.435   1_545  S
C132        C176   1.457       .  S
C133        O134   1.274       .  A
C133        N179   1.444       .  S
N135        C583   1.370       .  A
N135        C136   1.375       .  A
C136        C220   1.505       .  S
C136        C581   1.392       .  A
C137        C580   1.392       .  A
C137        C138   1.361       .  A
C137        H140   1.083       .  S
C138        C139   1.371       .  A
C138        H141   1.083       .  S
C139        C163   1.482       .  S
C139        N579   1.370       .  A
O142        C158   1.276       .  A
O142       Zn148   2.075       .  S
C143        O159   1.278       .  A
C143        O156   1.284       .  A
C143        N172   1.441       .  S
O144        C157   1.270       .  A
O144       Cd151   2.037       .  S
O145        C163   1.281       .  A
O145       Cd154   2.110       .  S
O146        C160   1.268       .  A
O146       Cd150   1.993       .  S
O147        C158   1.268       .  A
O147       Cd150   2.028       .  S
Zn148       O159   2.008       .  S
Zn148       O161   2.008       .  S
Zn148       O153   1.927       .  S
O149        C160   1.284       .  A
O149       Cd154   2.135       .  S
Cd150       O152   2.037       .  S
Cd150       O153   1.935       .  S
Cd151       O155   2.057       .  S
Cd151       O164   2.077       .  S
Cd151       O153   1.985       .  S
O152        C162   1.270       .  A
O153       Cd154   1.997       .  S
Cd154       O156   2.113       .  S
O155        C162   1.272       .  A
C157        O161   1.274       .  A
C157        C190   1.451       .  S
C158        C169   1.481       .  S
C160        N193   1.434   1_455  S
C162        C183   1.463       .  S
C163        O164   1.273       .  A
N165        C391   1.364       .  A
N165        C166   1.373   1_565  A
C166        C437   1.482       .  S
C166        C389   1.384   1_545  A
C167        C388   1.384       .  A
C167        C168   1.358       .  A
C167        H170   1.083       .  S
C168        C169   1.379       .  A
C168        H171   1.082       .  S
C169        N387   1.364       .  A
N172        C398   1.360       .  A
N172        C395   1.355       .  A
C173        C218   1.458   1_545  S
C173        N394   1.355       .  A
C173        C174   1.379       .  A
C174        C175   1.363       .  A
C174        H177   1.080       .  S
C175        C176   1.379       .  A
C175        H178   1.083       .  S
C176        N394   1.360       .  A
N179        C183   1.352       .  A
N179        C180   1.358       .  A
C180        C221   1.468       .  S
C180        C181   1.388       .  A
C181        C182   1.364       .  A
C181        H184   1.083       .  S
C182        C183   1.377       .  A
C182        H185   1.083       .  S
N186        C190   1.355       .  A
N186        C187   1.359       .  A
C187        C216   1.483       .  S
C187        C188   1.395       .  A
C188        C189   1.363       .  A
C188        H191   1.083       .  S
C189        C190   1.369       .  A
C189        H192   1.083       .  S
N193        C641   1.355       .  A
N193        C638   1.356       .  A
C194        C201   1.450       .  S
C194        N637   1.356       .  A
C194        C195   1.376       .  A
C195        C196   1.359       .  A
C195        H198   1.082       .  S
C196        C197   1.385       .  A
C196        H199   1.083       .  S
C197        N637   1.355       .  A
O200        C216   1.274       .  A
C201        O217   1.260       .  A
C201        O658   1.266       .  A
O202        C437   1.281       .  A
O202       Cd209   2.151       .  S
O203        C221   1.276       .  A
O203       Cd434   2.064   1_545  S
O204        C440   1.276       .  A
O204       Cd652   2.097   1_455  S
O205        C216   1.290       .  A
O205       Cd208   2.144       .  S
Zn206       O217   1.978       .  S
Zn206       O219   1.953       .  S
Zn206       O211   1.849       .  S
O207        C440   1.265       .  A
Cd208       O648   2.097       .  S
Cd208       O432   2.159       .  S
Cd209       O666   2.096       .  S
Cd209       O433   1.965   1_545  S
O210        C220   1.286       .  A
O210       Cd430   2.159   1_545  S
O211       Cd431   1.965       .  S
O211       Cd656   1.995       .  S
Cd212       O425   2.064       .  S
Cd212       O214   2.065       .  S
Cd212       O655   1.995       .  S
O213        C220   1.281       .  A
O214        C645   1.266       .  A
C215        O424   1.281       .  A
C215        O219   1.268       .  A
C215        C388   1.482       .  S
C218        O426   1.276   1_565  A
C218        O429   1.265       .  A
C221        O222   1.285       .  A
O222       Cd653   2.096   1_455  S
O223        C239   1.277       .  A
O223       Zn229   1.997       .  S
C224        O240   1.275       .  A
C224        O237   1.267       .  A
C224        C308   1.462       .  S
O225        C238   1.278       .  A
O225       Cd232   2.062       .  S
O226        C244   1.273       .  A
O226       Cd235   2.069       .  S
O227        C241   1.282       .  A
O227       Cd231   2.130       .  S
O228        C239   1.280       .  A
O228       Cd231   2.133       .  S
Zn229       O240   2.039       .  S
Zn229       O242   2.071       .  S
Zn229       O234   1.960       .  S
O230        C241   1.266       .  A
O230       Cd235   2.006       .  S
Cd231       O233   2.090       .  S
Cd231       O234   2.046       .  S
Cd232       O236   2.033       .  S
Cd232       O245   2.093       .  S
Cd232       O234   1.984       .  S
O233        C243   1.278       .  A
O234       Cd235   1.965       .  S
Cd235       O237   1.999       .  S
O236        C243   1.272       .  A
C238        O242   1.276       .  A
C238        N297   1.453       .  S
C239        N246   1.449       .  S
C241        N276   1.435       .  S
C243        C287   1.457       .  S
C244        O245   1.274       .  A
C244        N290   1.444       .  S
N246        C694   1.370       .  A
N246        C247   1.375       .  A
C247        C331   1.505       .  S
C247        C692   1.392       .  A
C248        C691   1.392       .  A
C248        C249   1.361       .  A
C248        H251   1.083       .  S
C249        C250   1.371       .  A
C249        H252   1.083       .  S
C250        C274   1.482       .  S
C250        N690   1.370       .  A
O253        C269   1.276       .  A
O253       Zn259   2.075       .  S
C254        O270   1.278       .  A
C254        O267   1.284       .  A
C254        N283   1.441   1_565  S
O255        C268   1.270       .  A
O255       Cd262   2.037       .  S
O256        C274   1.281       .  A
O256       Cd265   2.110       .  S
O257        C271   1.268       .  A
O257       Cd261   1.993       .  S
O258        C269   1.268       .  A
O258       Cd261   2.028       .  S
Zn259       O270   2.008       .  S
Zn259       O272   2.008       .  S
Zn259       O264   1.927       .  S
O260        C271   1.284       .  A
O260       Cd265   2.135       .  S
Cd261       O263   2.037       .  S
Cd261       O264   1.935       .  S
Cd262       O266   2.057       .  S
Cd262       O275   2.077       .  S
Cd262       O264   1.985       .  S
O263        C273   1.270       .  A
O264       Cd265   1.997       .  S
Cd265       O267   2.113       .  S
O266        C273   1.272       .  A
C268        O272   1.274       .  A
C268        C301   1.451       .  S
C269        C280   1.481       .  S
C271        N304   1.434   1_455  S
C273        C294   1.463       .  S
C274        O275   1.273       .  A
N276        C277   1.373       .  A
C278        C279   1.358       .  A
C278        H281   1.083       .  S
C279        C280   1.379       .  A
C279        H282   1.082       .  S
C284        C329   1.458       .  S
C284        C285   1.379       .  A
C285        C286   1.363       .  A
C285        H288   1.080       .  S
C286        C287   1.379       .  A
C286        H289   1.083       .  S
N290        C294   1.352       .  A
N290        C291   1.358       .  A
C291        C332   1.468       .  S
C291        C292   1.388       .  A
C292        C293   1.364       .  A
C292        H295   1.083       .  S
C293        C294   1.377       .  A
C293        H296   1.083       .  S
N297        C301   1.355       .  A
N297        C298   1.359       .  A
C298        C327   1.483       .  S
C298        C299   1.395       .  A
C299        C300   1.363       .  A
C299        H302   1.083       .  S
C300        C301   1.369       .  A
C300        H303   1.083       .  S
N304        C752   1.355       .  A
N304        C749   1.356       .  A
C305        C312   1.450       .  S
C305        N748   1.356       .  A
C305        C306   1.376       .  A
C306        C307   1.359       .  A
C306        H309   1.082       .  S
C307        C308   1.385       .  A
C307        H310   1.083       .  S
C308        N748   1.355       .  A
O311        C327   1.274       .  A
O311       Zn428   1.972       .  S
C312        O328   1.260       .  A
C312        O769   1.266       .  A
O313       Cd320   2.151       .  S
O314        C332   1.276       .  A
O315       Cd763   2.097   1_445  S
O316        C327   1.290       .  A
O316       Cd319   2.144       .  S
Zn317       O422   1.972   1_554  S
Zn317       O328   1.978       .  S
Zn317       O330   1.953       .  S
Zn317       O322   1.849       .  S
O318       Cd434   2.040       .  S
Cd319       O759   2.097   1_565  S
Cd319       O433   2.012       .  S
Cd320       O435   2.071   1_554  S
Cd320       O777   2.096       .  S
O321        C331   1.286       .  A
O322       Cd430   2.012   1_554  S
O322       Cd767   1.995       .  S
Cd323       O429   2.040   1_554  S
Cd323       O325   2.065       .  S
Cd323       O766   1.995       .  S
O324        C331   1.281       .  A
O324       Cd431   2.071       .  S
O325        C756   1.266       .  A
C326        O330   1.268   1_545  A
C332        O333   1.285       .  A
O333       Cd764   2.096   1_455  S
O334        C350   1.277       .  A
O334       Zn340   1.997       .  S
C335        O351   1.275       .  A
C335        O348   1.267       .  A
C335        C419   1.462       .  S
O336        C349   1.278       .  A
O336       Cd343   2.062       .  S
O337        C355   1.273       .  A
O337       Cd346   2.069       .  S
O338        C352   1.282       .  A
O338       Cd342   2.130       .  S
O339        C350   1.280       .  A
O339       Cd342   2.133       .  S
Zn340       O351   2.039       .  S
Zn340       O353   2.071       .  S
Zn340       O345   1.960       .  S
O341        C352   1.266       .  A
O341       Cd346   2.006       .  S
Cd342       O344   2.090       .  S
Cd342       O345   2.046       .  S
Cd343       O347   2.033       .  S
Cd343       O356   2.093       .  S
Cd343       O345   1.984       .  S
O344        C354   1.278       .  A
O345       Cd346   1.965       .  S
Cd346       O348   1.999       .  S
O347        C354   1.272       .  A
C349        O353   1.276       .  A
C349        N408   1.453       .  S
C350        N357   1.449       .  S
C352        N387   1.435       .  S
C354        C398   1.457       .  S
C355        O356   1.274       .  A
C355        N401   1.444       .  S
N357        C805   1.370       .  A
N357        C358   1.375       .  A
C358        C442   1.505       .  S
C358        C803   1.392       .  A
C359        C802   1.392       .  A
C359        C360   1.361       .  A
C359        H362   1.083       .  S
C360        C361   1.371       .  A
C360        H363   1.083       .  S
C361        C385   1.482       .  S
C361        N801   1.370       .  A
O364        C380   1.276       .  A
O364       Zn370   2.075       .  S
C365        O381   1.278       .  A
C365        O378   1.284       .  A
C365        N394   1.441   1_565  S
O366        C379   1.270       .  A
O366       Cd373   2.037       .  S
O367        C385   1.281       .  A
O367       Cd376   2.110       .  S
O368        C382   1.268       .  A
O368       Cd372   1.993       .  S
O369        C380   1.268       .  A
O369       Cd372   2.028       .  S
Zn370       O381   2.008       .  S
Zn370       O383   2.008       .  S
Zn370       O375   1.927       .  S
O371        C382   1.284       .  A
O371       Cd376   2.135       .  S
Cd372       O374   2.037       .  S
Cd372       O375   1.935       .  S
Cd373       O377   2.057       .  S
Cd373       O386   2.077       .  S
Cd373       O375   1.985       .  S
O374        C384   1.270       .  A
O375       Cd376   1.997       .  S
Cd376       O378   2.113       .  S
O377        C384   1.272       .  A
C379        O383   1.274       .  A
C379        C412   1.451       .  S
C380        C391   1.481       .  S
C382        N415   1.434   1_455  S
C384        C405   1.463       .  S
C385        O386   1.273       .  A
N387        C388   1.373       .  A
C389        C390   1.358       .  A
C389        H392   1.083       .  S
C390        C391   1.379       .  A
C390        H393   1.082       .  S
C395        C440   1.458       .  S
C395        C396   1.379       .  A
C396        C397   1.363       .  A
C396        H399   1.080       .  S
C397        C398   1.379       .  A
C397        H400   1.083       .  S
N401        C405   1.352       .  A
N401        C402   1.358       .  A
C402        C443   1.468       .  S
C402        C403   1.388       .  A
C403        C404   1.364       .  A
C403        H406   1.083       .  S
C404        C405   1.377       .  A
C404        H407   1.083       .  S
N408        C412   1.355       .  A
N408        C409   1.359       .  A
C409        C438   1.483       .  S
C409        C410   1.395       .  A
C410        C411   1.363       .  A
C410        H413   1.083       .  S
C411        C412   1.369       .  A
C411        H414   1.083       .  S
N415        C863   1.355       .  A
N415        C860   1.356       .  A
C416        C423   1.450       .  S
C416        N859   1.356       .  A
C416        C417   1.376       .  A
C417        C418   1.359       .  A
C417        H420   1.082       .  S
C418        C419   1.385       .  A
C418        H421   1.083       .  S
C419        N859   1.355       .  A
O422        C438   1.274       .  A
C423        O439   1.260       .  A
C423        O880   1.266       .  A
O424       Cd431   2.151       .  S
O425        C443   1.276       .  A
O426       Cd874   2.097   1_445  S
O427        C438   1.290       .  A
O427       Cd430   2.144       .  S
Zn428       O439   1.978       .  S
Zn428       O441   1.953       .  S
Zn428       O433   1.849       .  S
Cd430       O870   2.097   1_565  S
Cd431       O888   2.096       .  S
O432        C442   1.286       .  A
O433       Cd878   1.995       .  S
Cd434       O436   2.065       .  S
Cd434       O877   1.995       .  S
O435        C442   1.281       .  A
O436        C867   1.266       .  A
C437        O441   1.268   1_545  A
C443        O444   1.285       .  A
O444       Cd875   2.096   1_455  S
O445        C461   1.277       .  A
O445       Zn451   1.997       .  S
C446        O462   1.275       .  A
C446        O459   1.267       .  A
C446        C530   1.462       .  S
O447        C460   1.278       .  A
O447       Cd454   2.062       .  S
O448        C466   1.273       .  A
O448       Cd457   2.069       .  S
O449        C463   1.282       .  A
O449       Cd453   2.130       .  S
O450        C461   1.280       .  A
O450       Cd453   2.133       .  S
Zn451       O462   2.039       .  S
Zn451       O464   2.071       .  S
Zn451       O456   1.960       .  S
O452        C463   1.266       .  A
O452       Cd457   2.006       .  S
Cd453       O455   2.090       .  S
Cd453       O456   2.046       .  S
Cd454       O458   2.033       .  S
Cd454       O467   2.093       .  S
Cd454       O456   1.984       .  S
O455        C465   1.278       .  A
O456       Cd457   1.965       .  S
Cd457       O459   1.999       .  S
O458        C465   1.272       .  A
C460        O464   1.276       .  A
C460        N519   1.453       .  S
C461        N468   1.449   1_655  S
C463        N498   1.435   1_545  S
C465        C509   1.457       .  S
C466        O467   1.274       .  A
C466        N512   1.444       .  S
N468        C469   1.375       .  A
C469        C553   1.505   1_455  S
C470        C471   1.361       .  A
C470        H473   1.083       .  S
C471        C472   1.371       .  A
C471        H474   1.083       .  S
C472        C496   1.482       .  S
O475        C491   1.276       .  A
O475       Zn481   2.075       .  S
C476        O492   1.278       .  A
C476        O489   1.284       .  A
C476        N505   1.441       .  S
O477        C490   1.270       .  A
O477       Cd484   2.037       .  S
O478        C496   1.281       .  A
O478       Cd487   2.110       .  S
O479        C493   1.268       .  A
O479       Cd483   1.993       .  S
O480        C491   1.268       .  A
O480       Cd483   2.028       .  S
Zn481       O492   2.008       .  S
Zn481       O494   2.008       .  S
Zn481       O486   1.927       .  S
O482        C493   1.284       .  A
O482       Cd487   2.135       .  S
Cd483       O485   2.037       .  S
Cd483       O486   1.935       .  S
Cd484       O488   2.057       .  S
Cd484       O497   2.077       .  S
Cd484       O486   1.985       .  S
O485        C495   1.270       .  A
O486       Cd487   1.997       .  S
Cd487       O489   2.113       .  S
O488        C495   1.272       .  A
C490        O494   1.274       .  A
C490        C523   1.451       .  S
C491        C502   1.481       .  S
C493        N526   1.434       .  S
C495        C516   1.463       .  S
C496        O497   1.273       .  A
N498        C724   1.364       .  A
N498        C499   1.373   1_565  A
C499        C770   1.482       .  S
C499        C722   1.384   1_545  A
C500        C721   1.384       .  A
C500        C501   1.358       .  A
C500        H503   1.083       .  S
C501        C502   1.379       .  A
C501        H504   1.083       .  S
C502        N720   1.364       .  A
N505        C731   1.360       .  A
N505        C728   1.355       .  A
C506        C551   1.458   1_545  S
C506        N727   1.355       .  A
C506        C507   1.379       .  A
C507        C508   1.363       .  A
C507        H510   1.080       .  S
C508        C509   1.379       .  A
C508        H511   1.083       .  S
C509        N727   1.360       .  A
N512        C516   1.352       .  A
N512        C513   1.358       .  A
C513        C554   1.468       .  S
C513        C514   1.388       .  A
C514        C515   1.364       .  A
C514        H517   1.083       .  S
C515        C516   1.377       .  A
C515        H518   1.083       .  S
N519        C523   1.355       .  A
N519        C520   1.359       .  A
C520        C549   1.483       .  S
C520        C521   1.395       .  A
C521        C522   1.363       .  A
C521        H524   1.083       .  S
C522        C523   1.369       .  A
C522        H525   1.083       .  S
C527        C534   1.450   1_655  S
C527        C528   1.376       .  A
C528        C529   1.359       .  A
C528        H531   1.082       .  S
C529        C530   1.385       .  A
C529        H532   1.083       .  S
O533        C549   1.274       .  A
O533       Zn650   1.972       .  S
C534        O550   1.260   1_455  A
O535        C770   1.281       .  A
O535       Cd542   2.151       .  S
O536        C554   1.276       .  A
O536       Cd767   2.064   1_545  S
O537        C773   1.276       .  A
O538        C549   1.290       .  A
O538       Cd541   2.144       .  S
Zn539       O644   1.972   1_554  S
Zn539       O550   1.978       .  S
Zn539       O552   1.953       .  S
Zn539       O544   1.849   1_655  S
O540        C773   1.265       .  A
O540       Cd656   2.040       .  S
Cd541       O765   2.159       .  S
Cd541       O655   2.012   1_655  S
Cd542       O657   2.072   1_554  S
Cd542       O766   1.965   1_645  S
O543        C553   1.286       .  A
O543       Cd763   2.159   1_545  S
O544       Cd652   2.012   1_454  S
O544       Cd764   1.965   1_455  S
Cd545       O758   2.064       .  S
Cd545       O651   2.040   1_554  S
Cd545       O547   2.065       .  S
O546        C553   1.281       .  A
O546       Cd653   2.072       .  S
C548        O757   1.281       .  A
C548        O552   1.268       .  A
C548        C721   1.482       .  S
C551        O759   1.276   1_565  A
C551        O762   1.265       .  A
C554        O555   1.285       .  A
O556        C572   1.277       .  A
O556       Zn562   1.997       .  S
C557        O573   1.275       .  A
C557        O570   1.267       .  A
C557        C641   1.462       .  S
O558        C571   1.278       .  A
O558       Cd565   2.062       .  S
O559        C577   1.273       .  A
O559       Cd568   2.069       .  S
O560        C574   1.282       .  A
O560       Cd564   2.130       .  S
O561        C572   1.280       .  A
O561       Cd564   2.133       .  S
Zn562       O573   2.039       .  S
Zn562       O575   2.071       .  S
Zn562       O567   1.960       .  S
O563        C574   1.266       .  A
O563       Cd568   2.006       .  S
Cd564       O566   2.090       .  S
Cd564       O567   2.046       .  S
Cd565       O569   2.033       .  S
Cd565       O578   2.093       .  S
Cd565       O567   1.984       .  S
O566        C576   1.278       .  A
O567       Cd568   1.965       .  S
Cd568       O570   1.999       .  S
O569        C576   1.272       .  A
C571        O575   1.276       .  A
C571        N630   1.453       .  S
C572        N579   1.449   1_655  S
C574        N609   1.435   1_545  S
C576        C620   1.457       .  S
C577        O578   1.274       .  A
C577        N623   1.444       .  S
N579        C580   1.375       .  A
C580        C664   1.505   1_455  S
C581        C582   1.361       .  A
C581        H584   1.083       .  S
C582        C583   1.371       .  A
C582        H585   1.083       .  S
C583        C607   1.482       .  S
O586        C602   1.276       .  A
O586       Zn592   2.075       .  S
C587        O603   1.278       .  A
C587        O600   1.284       .  A
C587        N616   1.441       .  S
O588        C601   1.270       .  A
O588       Cd595   2.037       .  S
O589        C607   1.281       .  A
O589       Cd598   2.110       .  S
O590        C604   1.268       .  A
O590       Cd594   1.993       .  S
O591        C602   1.268       .  A
O591       Cd594   2.028       .  S
Zn592       O603   2.008       .  S
Zn592       O605   2.008       .  S
Zn592       O597   1.927       .  S
O593        C604   1.284       .  A
O593       Cd598   2.135       .  S
Cd594       O596   2.037       .  S
Cd594       O597   1.935       .  S
Cd595       O599   2.057       .  S
Cd595       O608   2.077       .  S
Cd595       O597   1.985       .  S
O596        C606   1.270       .  A
O597       Cd598   1.997       .  S
Cd598       O600   2.113       .  S
O599        C606   1.272       .  A
C601        O605   1.274       .  A
C601        C634   1.451       .  S
C602        C613   1.481       .  S
C604        N637   1.434       .  S
C606        C627   1.463       .  S
C607        O608   1.273       .  A
N609        C835   1.364       .  A
N609        C610   1.373   1_565  A
C610        C881   1.482       .  S
C610        C833   1.384   1_545  A
C611        C832   1.384       .  A
C611        C612   1.358       .  A
C611        H614   1.083       .  S
C612        C613   1.379       .  A
C612        H615   1.082       .  S
C613        N831   1.364       .  A
N616        C842   1.360       .  A
N616        C839   1.355       .  A
C617        C662   1.458   1_545  S
C617        N838   1.355       .  A
C617        C618   1.379       .  A
C618        C619   1.363       .  A
C618        H621   1.080       .  S
C619        C620   1.379       .  A
C619        H622   1.083       .  S
C620        N838   1.360       .  A
N623        C627   1.352       .  A
N623        C624   1.358       .  A
C624        C665   1.468       .  S
C624        C625   1.388       .  A
C625        C626   1.364       .  A
C625        H628   1.083       .  S
C626        C627   1.377       .  A
C626        H629   1.083       .  S
N630        C634   1.355       .  A
N630        C631   1.359       .  A
C631        C660   1.483       .  S
C631        C632   1.395       .  A
C632        C633   1.363       .  A
C632        H635   1.083       .  S
C633        C634   1.369       .  A
C633        H636   1.083       .  S
C638        C645   1.450   1_655  S
C638        C639   1.376       .  A
C639        C640   1.359       .  A
C639        H642   1.082       .  S
C640        C641   1.385       .  A
C640        H643   1.083       .  S
O644        C660   1.274       .  A
C645        O661   1.260   1_455  A
O646        C881   1.281       .  A
O646       Cd653   2.151       .  S
O647        C665   1.276       .  A
O647       Cd878   2.064   1_545  S
O648        C884   1.276       .  A
O649        C660   1.290       .  A
O649       Cd652   2.144       .  S
Zn650       O661   1.978       .  S
Zn650       O663   1.953       .  S
Zn650       O655   1.849   1_655  S
O651        C884   1.265       .  A
Cd652       O876   2.159       .  S
Cd653       O877   1.965   1_645  S
O654        C664   1.286       .  A
O654       Cd874   2.159   1_545  S
O655       Cd875   1.965   1_455  S
Cd656       O869   2.064       .  S
Cd656       O658   2.065       .  S
O657        C664   1.281       .  A
C659        O868   1.281       .  A
C659        O663   1.268       .  A
C659        C832   1.482       .  S
C662        O870   1.276   1_565  A
C662        O873   1.265       .  A
C665        O666   1.285       .  A
O667        C683   1.277       .  A
O667       Zn673   1.997       .  S
C668        O684   1.275       .  A
C668        O681   1.267       .  A
C668        C752   1.462       .  S
O669        C682   1.278       .  A
O669       Cd676   2.062       .  S
O670        C688   1.273       .  A
O670       Cd679   2.069       .  S
O671        C685   1.282       .  A
O671       Cd675   2.130       .  S
O672        C683   1.280       .  A
O672       Cd675   2.133       .  S
Zn673       O684   2.039       .  S
Zn673       O686   2.071       .  S
Zn673       O678   1.960       .  S
O674        C685   1.266       .  A
O674       Cd679   2.006       .  S
Cd675       O677   2.090       .  S
Cd675       O678   2.046       .  S
Cd676       O680   2.033       .  S
Cd676       O689   2.093       .  S
Cd676       O678   1.984       .  S
O677        C687   1.278       .  A
O678       Cd679   1.965       .  S
Cd679       O681   1.999       .  S
O680        C687   1.272       .  A
C682        O686   1.276       .  A
C682        N741   1.453       .  S
C683        N690   1.449   1_655  S
C685        N720   1.435       .  S
C687        C731   1.457       .  S
C688        O689   1.274       .  A
C688        N734   1.444       .  S
N690        C691   1.375       .  A
C691        C775   1.505   1_455  S
C692        C693   1.361       .  A
C692        H695   1.083       .  S
C693        C694   1.371       .  A
C693        H696   1.083       .  S
C694        C718   1.482       .  S
O697        C713   1.276       .  A
O697       Zn703   2.075       .  S
C698        O714   1.278       .  A
C698        O711   1.284       .  A
C698        N727   1.441   1_565  S
O699        C712   1.270       .  A
O699       Cd706   2.037       .  S
O700        C718   1.281       .  A
O700       Cd709   2.110       .  S
O701        C715   1.268       .  A
O701       Cd705   1.993       .  S
O702        C713   1.268       .  A
O702       Cd705   2.028       .  S
Zn703       O714   2.008       .  S
Zn703       O716   2.008       .  S
Zn703       O708   1.927       .  S
O704        C715   1.284       .  A
O704       Cd709   2.135       .  S
Cd705       O707   2.037       .  S
Cd705       O708   1.935       .  S
Cd706       O710   2.057       .  S
Cd706       O719   2.077       .  S
Cd706       O708   1.985       .  S
O707        C717   1.270       .  A
O708       Cd709   1.997       .  S
Cd709       O711   2.113       .  S
O710        C717   1.272       .  A
C712        O716   1.274       .  A
C712        C745   1.451       .  S
C713        C724   1.481       .  S
C715        N748   1.434       .  S
C717        C738   1.463       .  S
C718        O719   1.273       .  A
N720        C721   1.373       .  A
C722        C723   1.358       .  A
C722        H725   1.083       .  S
C723        C724   1.379       .  A
C723        H726   1.082       .  S
C728        C773   1.458       .  S
C728        C729   1.379       .  A
C729        C730   1.363       .  A
C729        H732   1.080       .  S
C730        C731   1.379       .  A
C730        H733   1.083       .  S
N734        C738   1.352       .  A
N734        C735   1.358       .  A
C735        C776   1.468       .  S
C735        C736   1.388       .  A
C736        C737   1.364       .  A
C736        H739   1.083       .  S
C737        C738   1.377       .  A
C737        H740   1.083       .  S
N741        C745   1.355       .  A
N741        C742   1.359       .  A
C742        C771   1.483       .  S
C742        C743   1.395       .  A
C743        C744   1.363       .  A
C743        H746   1.083       .  S
C744        C745   1.369       .  A
C744        H747   1.083       .  S
C749        C756   1.450   1_655  S
C749        C750   1.376       .  A
C750        C751   1.359       .  A
C750        H753   1.082       .  S
C751        C752   1.385       .  A
C751        H754   1.083       .  S
O755        C771   1.274       .  A
O755       Zn872   1.972       .  S
C756        O772   1.260   1_455  A
O757       Cd764   2.151       .  S
O758        C776   1.276       .  A
O760        C771   1.290       .  A
O760       Cd763   2.144       .  S
Zn761       O866   1.972   1_554  S
Zn761       O772   1.978       .  S
Zn761       O774   1.953       .  S
Zn761       O766   1.849   1_655  S
O762       Cd878   2.040       .  S
Cd763       O877   2.012   1_655  S
Cd764       O879   2.071   1_554  S
O765        C775   1.286       .  A
O766       Cd874   2.012   1_454  S
Cd767       O873   2.040   1_554  S
Cd767       O769   2.065       .  S
O768        C775   1.281       .  A
O768       Cd875   2.071       .  S
C770        O774   1.268   1_545  A
C776        O777   1.285       .  A
O778        C794   1.277       .  A
O778       Zn784   1.997       .  S
C779        O795   1.275       .  A
C779        O792   1.267       .  A
C779        C863   1.462       .  S
O780        C793   1.278       .  A
O780       Cd787   2.062       .  S
O781        C799   1.273       .  A
O781       Cd790   2.069       .  S
O782        C796   1.282       .  A
O782       Cd786   2.130       .  S
O783        C794   1.280       .  A
O783       Cd786   2.133       .  S
Zn784       O795   2.039       .  S
Zn784       O797   2.071       .  S
Zn784       O789   1.960       .  S
O785        C796   1.266       .  A
O785       Cd790   2.006       .  S
Cd786       O788   2.090       .  S
Cd786       O789   2.046       .  S
Cd787       O791   2.033       .  S
Cd787       O800   2.093       .  S
Cd787       O789   1.984       .  S
O788        C798   1.278       .  A
O789       Cd790   1.965       .  S
Cd790       O792   1.999       .  S
O791        C798   1.272       .  A
C793        O797   1.276       .  A
C793        N852   1.453       .  S
C794        N801   1.449   1_655  S
C796        N831   1.435       .  S
C798        C842   1.457       .  S
C799        O800   1.274       .  A
C799        N845   1.444       .  S
N801        C802   1.375       .  A
C802        C886   1.505   1_455  S
C803        C804   1.361       .  A
C803        H806   1.083       .  S
C804        C805   1.371       .  A
C804        H807   1.083       .  S
C805        C829   1.482       .  S
O808        C824   1.276       .  A
O808       Zn814   2.075       .  S
C809        O825   1.278       .  A
C809        O822   1.284       .  A
C809        N838   1.441   1_565  S
O810        C823   1.270       .  A
O810       Cd817   2.037       .  S
O811        C829   1.281       .  A
O811       Cd820   2.110       .  S
O812        C826   1.268       .  A
O812       Cd816   1.993       .  S
O813        C824   1.268       .  A
O813       Cd816   2.028       .  S
Zn814       O825   2.008       .  S
Zn814       O827   2.008       .  S
Zn814       O819   1.927       .  S
O815        C826   1.284       .  A
O815       Cd820   2.135       .  S
Cd816       O818   2.037       .  S
Cd816       O819   1.935       .  S
Cd817       O821   2.057       .  S
Cd817       O830   2.077       .  S
Cd817       O819   1.985       .  S
O818        C828   1.270       .  A
O819       Cd820   1.997       .  S
Cd820       O822   2.113       .  S
O821        C828   1.272       .  A
C823        O827   1.274       .  A
C823        C856   1.451       .  S
C824        C835   1.481       .  S
C826        N859   1.434       .  S
C828        C849   1.463       .  S
C829        O830   1.273       .  A
N831        C832   1.373       .  A
C833        C834   1.358       .  A
C833        H836   1.083       .  S
C834        C835   1.379       .  A
C834        H837   1.083       .  S
C839        C884   1.458       .  S
C839        C840   1.379       .  A
C840        C841   1.363       .  A
C840        H843   1.080       .  S
C841        C842   1.379       .  A
C841        H844   1.083       .  S
N845        C849   1.352       .  A
N845        C846   1.358       .  A
C846        C887   1.468       .  S
C846        C847   1.388       .  A
C847        C848   1.364       .  A
C847        H850   1.083       .  S
C848        C849   1.377       .  A
C848        H851   1.083       .  S
N852        C856   1.355       .  A
N852        C853   1.359       .  A
C853        C882   1.483       .  S
C853        C854   1.395       .  A
C854        C855   1.363       .  A
C854        H857   1.083       .  S
C855        C856   1.369       .  A
C855        H858   1.083       .  S
C860        C867   1.450   1_655  S
C860        C861   1.376       .  A
C861        C862   1.359       .  A
C861        H864   1.082       .  S
C862        C863   1.385       .  A
C862        H865   1.083       .  S
O866        C882   1.274       .  A
C867        O883   1.260   1_455  A
O868       Cd875   2.151       .  S
O869        C887   1.276       .  A
O871        C882   1.290       .  A
O871       Cd874   2.144       .  S
Zn872       O883   1.978       .  S
Zn872       O885   1.953       .  S
Zn872       O877   1.849   1_655  S
O876        C886   1.286       .  A
Cd878       O880   2.065       .  S
O879        C886   1.281       .  A
C881        O885   1.268   1_545  A
C887        O888   1.285       .  A
