geometry optimzed in LAMMPS
_audit_creation_date              2020-11-30 
_audit_creation_method            'lammps2cif' 
_symmetry_space_group_name_H-M    'P1' 
_symmetry_Int_Tables_number       1 
_symmetry_cell_setting            triclinic 
loop_ 
_symmetry_equiv_pos_as_xyz 
  x,y,z 
_cell_length_a                    33.7092255 
_cell_length_b                    33.71685294597194 
_cell_length_c                    42.676319128678806 
_cell_angle_alpha                 75.82968607765602 
_cell_angle_beta                  76.14323294953556 
_cell_angle_gamma                 87.41983457468424 
loop_ 
_atom_site_label 
_atom_site_type_symbol 
_atom_site_fract_x 
_atom_site_fract_y 
_atom_site_fract_z 
_atom_site_charge 
N1          N  0.29862366  0.00503549  0.23845230    -0.03500
C2          C  0.33952542  0.01300129  0.22996628    -0.00900
C3          C  0.35521813  0.01315768  0.19678861    -0.23800
C4          C  0.32327851  0.00485803  0.18455156    -0.24000
C5          C  0.28915258  0.99993889  0.21053938    -0.00500
H6          H  0.38687922  0.01717542  0.18321603     0.12800
H7          H  0.32472255  0.00262106  0.15943365     0.12800
N8          N  0.60051362  0.99991843  0.34357404    -0.03500
C9          C  0.55934305  0.99411985  0.35401830    -0.00900
C10         C  0.54652380  0.99460196  0.38727886    -0.23800
C11         C  0.58067476  0.00087588  0.39764762    -0.24000
C12         C  0.61317276  0.00399501  0.37046035    -0.01000
H13         H  0.51548912  0.99153014  0.40227461     0.12800
H14         H  0.58187074  0.00214260  0.42250358     0.12800
N15         N  0.94550847  0.33936745  0.24406925    -0.03500
C16         C  0.93708379  0.37997299  0.23808899    -0.00900
C17         C  0.93374696  0.39442806  0.20553233    -0.23800
C18         C  0.94007937  0.36181306  0.19110219    -0.24000
C19         C  0.94715318  0.32860796  0.21522695    -0.01000
H20         H  0.92818220  0.42558062  0.19331737     0.12800
H21         H  0.93906904  0.36209277  0.16589216     0.12800
N22         N  0.95046227  0.64227333  0.34529337    -0.03500
C23         C  0.95757190  0.60141660  0.35258577    -0.00900
C24         C  0.95900346  0.58778200  0.38564879    -0.23800
C25         C  0.95270727  0.62114620  0.39915040    -0.24000
C26         C  0.94767504  0.65397372  0.37392636    -0.01000
H27         H  0.96329118  0.55667227  0.39874644     0.12800
H28         H  0.95233987  0.62158321  0.42449169     0.12800
N29         N  0.93122710  0.07491052  0.07136340    -0.06200
N30         N  0.91827271  0.09420209  0.09530429    -0.58300
N31         N  0.96973187  0.08121054  0.48957104    -0.05800
N32         N  0.98312104  0.10577166  0.45976872    -0.60400
N33         N  0.92954446  0.08132034  0.49829657    -0.05400
N34         N  0.91483946  0.10600667  0.47472532    -0.58300
N35         N  0.97137920  0.07522089  0.06273898    -0.05100
N36         N  0.98659162  0.09474265  0.08060297    -0.60800
C37         C  0.95317075  0.10632101  0.10088856     0.96000
C38         C  0.94849231  0.12097398  0.45075058     0.95800
N39         N  0.03739532  0.97353982  0.49224707    -0.06300
N40         N  0.06218160  0.96109140  0.46760075    -0.58900
N41         N  0.03736459  0.00744321  0.05966572    -0.04500
N42         N  0.05761764  0.01977591  0.07850957    -0.60100
N43         N  0.03695544  0.96725377  0.06574884    -0.06400
N44         N  0.05715005  0.95142754  0.08879863    -0.59100
N45         N  0.03846631  0.01370016  0.48625299    -0.04100
N46         N  0.06432997  0.02930886  0.45753405    -0.60200
Mn47       Mn  0.00514491  0.04539849  0.02404836     1.18400
C48         C  0.07870945  0.99611430  0.44599456     0.98100
C49         C  0.06979140  0.98460528  0.09656735     0.98800
N50         N  0.86066961  0.01341403  0.02223436    -0.06400
N51         N  0.84000090  0.02934367  0.49957116    -0.62700
N52         N  0.86019794  0.96750392  0.10163310    -0.05200
N53         N  0.83492164  0.95244457  0.13079476    -0.63400
N54         N  0.86159014  0.00769847  0.09527129    -0.05900
N55         N  0.83779638  0.02070008  0.12002483    -0.63000
N56         N  0.85992313  0.97325114  0.02844622    -0.04800
N57         N  0.83890277  0.96099812  0.01004473    -0.63700
Mn58       Mn  0.89491498  0.04526392  0.04687408     1.10700
C59         C  0.82663557  0.99627068  0.49215937     0.99300
C60         C  0.82142373  0.98604429  0.14215122     0.99400
N61         N  0.96864302  0.89856789  0.08880506    -0.05900
N62         N  0.98332035  0.87295863  0.11197383    -0.61300
N63         N  0.92659001  0.90644961  0.02420117    -0.05200
N64         N  0.91117678  0.88889962  0.00522232    -0.58000
N65         N  0.96677417  0.90679228  0.01535356    -0.06500
N66         N  0.97947108  0.88940888  0.49018309    -0.60900
N67         N  0.92846702  0.89892033  0.09768719    -0.05500
N68         N  0.91508804  0.87362656  0.12717264    -0.58000
Mn69       Mn  0.00334683  0.93549458  0.04042940     1.20200
Mn70       Mn  0.89285160  0.93542102  0.06359599     1.10100
Cl71       Cl  0.94907329  0.99034503  0.04376835    -0.86000
C72         C  0.94967569  0.85768852  0.13586812     0.96300
C73         C  0.94441671  0.87847737  0.48406482     0.96100
C74         C  0.94353179  0.69598714  0.37817533    -0.01300
C75         C  0.90594798  0.70841199  0.39466132    -0.09400
C76         C  0.90339666  0.74330849  0.40704915    -0.18200
C77         C  0.93895764  0.76603309  0.40415945     0.04200
C78         C  0.97675052  0.75431043  0.38571350     0.18400
C79         C  0.97855029  0.71983729  0.37247623    -0.19600
C80         C  0.01293138  0.77525250  0.38262609    -0.20900
C81         C  0.01291759  0.80574273  0.39944464    -0.19400
C82         C  0.97663169  0.81634637  0.41938074     0.19800
C83         C  0.93886007  0.79794134  0.42086624     0.01900
C84         C  0.90292213  0.81086835  0.44039852    -0.14200
C85         C  0.90485765  0.83821184  0.45979340    -0.11900
C86         C  0.94246755  0.85376069  0.46024654     0.01400
C87         C  0.97810237  0.84396470  0.43899387    -0.24000
H88         H  0.87876736  0.68977846  0.39951196     0.09400
H89         H  0.87356460  0.75022361  0.42036878     0.13000
H90         H  0.00774758  0.70956497  0.36012376     0.11700
H91         H  0.04174278  0.76673398  0.36833239     0.12900
H92         H  0.04170454  0.82018127  0.39771891     0.12000
H93         H  0.87292903  0.79976732  0.44183451     0.09000
H94         H  0.87674993  0.84616644  0.47534908     0.12300
H95         H  0.00725065  0.85666960  0.43860356     0.14200
C96         C  0.94972834  0.66929743  0.31353139    -0.01300
C97         C  0.98373490  0.67302156  0.28670622    -0.09400
C98         C  0.98523214  0.70295135  0.25714054    -0.18200
C99         C  0.95228521  0.72996363  0.25345253     0.04200
C100        C  0.91718030  0.72475824  0.28043240     0.18400
C101        C  0.91643661  0.69497812  0.31011662    -0.19600
C102        C  0.88312161  0.74953881  0.27776826    -0.20900
C103        C  0.88298181  0.77940003  0.24880254    -0.19400
C104        C  0.91726364  0.78595912  0.22199188     0.19800
C105        C  0.95270927  0.76180261  0.22408033     0.01900
C106        C  0.98710894  0.77102771  0.19684645    -0.14200
C107        C  0.98604645  0.80234534  0.16864896    -0.11900
C108        C  0.95063903  0.82520277  0.16630337     0.01400
C109        C  0.91634642  0.81679496  0.19315121    -0.24000
H110        H  0.00979046  0.65351383  0.28910683     0.09400
H111        H  0.01256254  0.70423124  0.23764851     0.13000
H112        H  0.89002458  0.69188198  0.33090213     0.11700
H113        H  0.85624839  0.74564528  0.29820811     0.12900
H114        H  0.85595981  0.79781429  0.24749871     0.12000
H115        H  0.01545374  0.75488315  0.19674586     0.09000
H116        H  0.01305953  0.80836710  0.14835715     0.12300
H117        H  0.88898370  0.83467089  0.19178792     0.14200
C118        C  0.94682352  0.31151310  0.27531623    -0.01300
C119        C  0.91307524  0.30714236  0.30237017    -0.09400
C120        C  0.91208695  0.27683592  0.33153874    -0.18200
C121        C  0.94530251  0.25006223  0.33458603     0.04200
C122        C  0.98042016  0.25623376  0.30759742     0.18400
C123        C  0.98060898  0.28634491  0.27818709    -0.19600
C124        C  0.01497597  0.23211770  0.31004806    -0.20900
C125        C  0.01547351  0.20191470  0.33877756    -0.19400
C126        C  0.98097467  0.19417615  0.36539851     0.19800
C127        C  0.94507782  0.21759616  0.36341902     0.01900
C128        C  0.91030100  0.20694745  0.39012076    -0.14200
C129        C  0.91151362  0.17524183  0.41793357    -0.11900
C130        C  0.94742716  0.15338658  0.42040980     0.01400
C131        C  0.98204325  0.16291370  0.39393254    -0.24000
H132        H  0.88682793  0.32651577  0.30045341     0.09400
H133        H  0.88497322  0.27519898  0.35128874     0.13000
H134        H  0.00695637  0.29019176  0.25729626     0.11700
H135        H  0.04194042  0.23683475  0.28966323     0.12900
H136        H  0.04286317  0.18406918  0.33998713     0.12000
H137        H  0.88149901  0.22216380  0.39004641     0.09000
H138        H  0.88420037  0.16819054  0.43786303     0.12300
H139        H  0.00976439  0.14567530  0.39537117     0.14200
C140        C  0.95146216  0.28703001  0.20999124    -0.01300
C141        C  0.98938663  0.27459940  0.19407942    -0.09400
C142        C  0.99223388  0.24076045  0.18030467    -0.18200
C143        C  0.95671089  0.21915233  0.18129486     0.04200
C144        C  0.91860599  0.23046544  0.19957143     0.18400
C145        C  0.91642661  0.26396707  0.21397669    -0.19600
C146        C  0.88256196  0.21001176  0.20154177    -0.20900
C147        C  0.88311153  0.18005598  0.18414808    -0.19400
C148        C  0.91971814  0.16986919  0.16437049     0.19800
C149        C  0.95724352  0.18843339  0.16332519     0.01900
C150        C  0.99334754  0.17678218  0.14308663    -0.14200
C151        C  0.99191990  0.14939011  0.12359256    -0.11900
C152        C  0.95466451  0.13260978  0.12365440     0.01400
C153        C  0.91879292  0.14221116  0.14471422    -0.24000
H154        H  0.01664706  0.29253042  0.19067827     0.09400
H155        H  0.02237171  0.23359449  0.16771550     0.13000
H156        H  0.88701382  0.27412540  0.22604778     0.11700
H157        H  0.85351834  0.21823250  0.21570437     0.12900
H158        H  0.85449523  0.16565155  0.18536271     0.12000
H159        H  0.02307273  0.18889436  0.14119279     0.09000
H160        H  0.02013270  0.14207053  0.10778787     0.12300
H161        H  0.88987537  0.12893956  0.14519886     0.14200
C162        C  0.93625322  0.40741406  0.26053656    -0.01300
C163        C  0.96599266  0.40480554  0.27881275    -0.09400
C164        C  0.97083273  0.43616276  0.29388102    -0.18200
C165        C  0.94612285  0.47141141  0.29078985     0.04200
C166        C  0.91422821  0.47244156  0.27409566     0.18400
C167        C  0.90963641  0.44065827  0.25925264    -0.19600
C168        C  0.88784312  0.50574776  0.27142663    -0.20900
C169        C  0.89267768  0.53847078  0.28473632    -0.19400
C170        C  0.92447210  0.53905319  0.30052117     0.19800
C171        C  0.95194939  0.50570350  0.30345335     0.01900
C172        C  0.98422201  0.50830108  0.31874651    -0.14200
C173        C  0.98749554  0.54125705  0.33235231    -0.11900
C174        C  0.95919489  0.57295199  0.33092339     0.01400
C175        C  0.92837258  0.57232348  0.31415864    -0.24000
H176        H  0.98714388  0.37964817  0.27990555     0.09400
H177        H  0.99475014  0.43230137  0.30715412     0.13000
H178        H  0.88620240  0.44258343  0.24542035     0.11700
H179        H  0.86332080  0.50654973  0.25885829     0.12900
H180        H  0.87156957  0.56364663  0.28245101     0.12000
H181        H  0.00708811  0.48508573  0.32105510     0.09000
H182        H  0.01157088  0.54127402  0.34522695     0.12300
H183        H  0.90600674  0.59646989  0.31344319     0.14200
C184        C  0.65564422  0.00610849  0.37304012    -0.01300
C185        C  0.67764193  0.97005465  0.37883617    -0.09400
C186        C  0.71108161  0.96836571  0.39310432    -0.18200
C187        C  0.72278367  0.00284849  0.40238471     0.04200
C188        C  0.70314943  0.04052661  0.39264815     0.18400
C189        C  0.66977119  0.04176418  0.37816427    -0.19600
C190        C  0.71491912  0.07604104  0.39966608    -0.20900
C191        C  0.74393480  0.07444014  0.41820077    -0.19400
C192        C  0.76114118  0.03713156  0.43074151     0.19800
C193        C  0.75136609  0.00086350  0.42258431     0.01900
C194        C  0.76853420  0.96376418  0.43682027    -0.14200
C195        C  0.79319347  0.96258724  0.45903629    -0.11900
C196        C  0.80210466  0.99826816  0.46740829     0.01400
C197        C  0.78673744  0.03560090  0.45257054    -0.24000
H198        H  0.66698366  0.94230870  0.37476198     0.09400
H199        H  0.72590022  0.93927301  0.39793654     0.13000
H200        H  0.65258271  0.06969364  0.37346451     0.11700
H201        H  0.70056157  0.10498264  0.39175988     0.12900
H202        H  0.75158215  0.10225717  0.42403196     0.12000
H203        H  0.76238825  0.93491269  0.43219369     0.09000
H204        H  0.80496141  0.93340014  0.47001743     0.12300
H205        H  0.79350838  0.06337525  0.45892393     0.14200
C206        C  0.62692565  0.99893003  0.31178465    -0.01300
C207        C  0.62901862  0.96382580  0.29955957    -0.09400
C208        C  0.65943611  0.96019171  0.27158064    -0.18200
C209        C  0.68863111  0.99196071  0.25486493     0.04200
C210        C  0.68461715  0.02844911  0.26643193     0.18400
C211        C  0.65424826  0.03139798  0.29472376    -0.19600
C212        C  0.71148830  0.06151669  0.25016356    -0.20900
C213        C  0.74268546  0.05911606  0.22276496    -0.19400
C214        C  0.74836342  0.02328123  0.21132297     0.19800
C215        C  0.72175452  0.98895045  0.22732210     0.01900
C216        C  0.73008145  0.95303993  0.21537024    -0.14200
C217        C  0.76292452  0.95168995  0.18833798    -0.11900
C218        C  0.78818625  0.98610238  0.17211594     0.01400
C219        C  0.78074152  0.02166535  0.18394896    -0.24000
H220        H  0.60808364  0.93845732  0.31259705     0.09400
H221        H  0.65963247  0.93205271  0.26382001     0.13000
H222        H  0.65235499  0.05866374  0.30417534     0.11700
H223        H  0.70841284  0.08946261  0.25875134     0.12900
H224        H  0.76290915  0.08534473  0.21069899     0.12000
H225        H  0.71193458  0.92543684  0.22657262     0.09000
H226        H  0.76811088  0.92379571  0.17974531     0.12300
H227        H  0.80039327  0.04832918  0.17182815     0.14200
C228        C  0.27015855  0.00194763  0.27013820    -0.01300
C229        C  0.24666898  0.96627516  0.28522754    -0.09400
C230        C  0.21627215  0.96365670  0.31433674    -0.18200
C231        C  0.20784411  0.99720283  0.32926115     0.04200
C232        C  0.23213106  0.03337667  0.31402509     0.18400
C233        C  0.26330816  0.03526121  0.28490553    -0.19600
C234        C  0.22448796  0.06763514  0.32756650    -0.20900
C235        C  0.19289344  0.06699256  0.35560293    -0.19400
C236        C  0.16830770  0.03192642  0.37110000     0.19800
C237        C  0.17579737  0.99634203  0.35837198     0.01900
C238        C  0.15072290  0.96144892  0.37528857    -0.14200
C239        C  0.11952662  0.96191160  0.40339013    -0.11900
C240        C  0.11175459  0.99706667  0.41566506     0.01400
C241        C  0.13627856  0.03212573  0.39931030    -0.24000
H242        H  0.25174240  0.94031174  0.27409536     0.09400
H243        H  0.19942969  0.93515905  0.32411598     0.13000
H244        H  0.28128655  0.06306805  0.27298736     0.11700
H245        H  0.24278056  0.09533013  0.31615114     0.12900
H246        H  0.18760597  0.09418197  0.36520790     0.12000
H247        H  0.15449674  0.93311056  0.36760597     0.09000
H248        H  0.10117433  0.93441633  0.41554025     0.12300
H249        H  0.13081102  0.05941944  0.40877886     0.14200
C250        C  0.09544070  0.98317001  0.12044401    -0.01300
C251        C  0.11283460  0.94652235  0.13416680    -0.09400
C252        C  0.13990756  0.94604334  0.15447643    -0.18200
C253        C  0.15055055  0.98252660  0.16154470     0.04200
C254        C  0.13104936  0.01918661  0.14888617     0.18400
C255        C  0.10380745  0.01912989  0.12869392    -0.19600
C256        C  0.13991599  0.05608345  0.15540544    -0.20900
C257        C  0.16943435  0.05791600  0.17280043    -0.19400
C258        C  0.19087718  0.02292604  0.18398351     0.19800
C259        C  0.18109229  0.98443843  0.17932860     0.01900
C260        C  0.20405112  0.95014392  0.19093726    -0.14200
C261        C  0.23753913  0.95473891  0.20374809    -0.11900
C262        C  0.24816294  0.99312522  0.20641875     0.01400
C263        C  0.22385576  0.02674545  0.19787070    -0.24000
H264        H  0.10633211  0.91822779  0.12851068     0.09400
H265        H  0.15259336  0.91683731  0.16366342     0.13000
H266        H  0.08991885  0.04753674  0.11861176     0.11700
H267        H  0.12476956  0.08400603  0.14612361     0.12900
H268        H  0.17656613  0.08722873  0.17648592     0.12000
H269        H  0.19825812  0.91983505  0.18890183     0.09000
H270        H  0.25650320  0.92858276  0.21004622     0.12300
H271        H  0.23269353  0.05656845  0.19953811     0.14200
C272        C  0.53011511  0.99205063  0.33356993    -0.01300
C273        C  0.49581287  0.96614817  0.34758277    -0.09400
C274        C  0.46305233  0.96944416  0.33249612    -0.18200
C275        C  0.46335241  0.99929289  0.30275333     0.04200
C276        C  0.49908217  0.02435045  0.28780623     0.18400
C277        C  0.53207992  0.02043202  0.30321264    -0.19600
C278        C  0.50120905  0.05390593  0.25803022    -0.20900
C279        C  0.46871816  0.05905429  0.24265636    -0.19400
C280        C  0.43314972  0.03500974  0.25681530     0.19800
C281        C  0.42961286  0.00511129  0.28727618     0.01900
C282        C  0.39259435  0.98216590  0.30064835    -0.14200
C283        C  0.36169132  0.98679957  0.28328512    -0.11900
C284        C  0.36639572  0.01482263  0.25244268     0.01400
C285        C  0.40159601  0.03979059  0.24001171    -0.24000
H286        H  0.49373536  0.94397412  0.37109196     0.09400
H287        H  0.43771461  0.94864926  0.34506204     0.13000
H288        H  0.55818450  0.04110137  0.29256697     0.11700
H289        H  0.52824219  0.07312500  0.24649722     0.12900
H290        H  0.47152163  0.08190123  0.21939667     0.12000
H291        H  0.38704338  0.95953648  0.32396426     0.09000
H292        H  0.33524499  0.96658978  0.29317409     0.12300
H293        H  0.40531760  0.06176438  0.21619175     0.14200
N294        N  0.29862365  0.00503564  0.73845230    -0.03500
C295        C  0.33952540  0.01300143  0.72996627    -0.00900
C296        C  0.35521809  0.01315785  0.69678859    -0.23800
C297        C  0.32327845  0.00485823  0.68455157    -0.24000
C298        C  0.28915255  0.99993906  0.71053939    -0.00500
H299        H  0.38687917  0.01717557  0.68321603     0.12800
H300        H  0.32472248  0.00262126  0.65943360     0.12800
N301        N  0.60051361  0.99991845  0.84357404    -0.03500
C302        C  0.55934303  0.99411990  0.85401830    -0.00900
C303        C  0.54652380  0.99460206  0.88727886    -0.23800
C304        C  0.58067477  0.00087598  0.89764760    -0.24000
C305        C  0.61317276  0.00399506  0.87046033    -0.01000
H306        H  0.51548914  0.99153028  0.90227461     0.12800
H307        H  0.58187076  0.00214273  0.92250354     0.12800
N308        N  0.94550842  0.33936744  0.74406929    -0.03500
C309        C  0.93708375  0.37997298  0.73808902    -0.00900
C310        C  0.93374696  0.39442807  0.70553235    -0.23800
C311        C  0.94007942  0.36181307  0.69110220    -0.24000
C312        C  0.94715319  0.32860797  0.71522698    -0.01000
H313        H  0.92818223  0.42558061  0.69331738     0.12800
H314        H  0.93906913  0.36209278  0.66589216     0.12800
N315        N  0.95046226  0.64227332  0.84529337    -0.03500
C316        C  0.95757189  0.60141659  0.85258576    -0.00900
C317        C  0.95900346  0.58778199  0.88564878    -0.23800
C318        C  0.95270729  0.62114619  0.89915039    -0.24000
C319        C  0.94767505  0.65397371  0.87392636    -0.01000
H320        H  0.96329118  0.55667226  0.89874644     0.12800
H321        H  0.95233990  0.62158321  0.92449168     0.12800
N322        N  0.93122714  0.07491056  0.57136338    -0.06200
N323        N  0.91827275  0.09420212  0.59530426    -0.58300
N324        N  0.96973184  0.08121054  0.98957106    -0.05800
N325        N  0.98312100  0.10577166  0.95976875    -0.60400
N326        N  0.92954444  0.08132033  0.99829660    -0.05400
N327        N  0.91483943  0.10600666  0.97472535    -0.58300
N328        N  0.97137924  0.07522092  0.56273895    -0.05100
N329        N  0.98659166  0.09474269  0.58060294    -0.60800
C330        C  0.95317079  0.10632105  0.60088854     0.96000
C331        C  0.94849227  0.12097398  0.95075061     0.95800
N332        N  0.03739530  0.97353984  0.99224707    -0.06300
N333        N  0.06218159  0.96109144  0.96760074    -0.58900
N334        N  0.03736462  0.00744323  0.55966569    -0.04500
N335        N  0.05761767  0.01977595  0.57850954    -0.60100
N336        N  0.03695547  0.96725379  0.56574883    -0.06400
N337        N  0.05715007  0.95142757  0.58879862    -0.59100
N338        N  0.03846629  0.01370018  0.98625301    -0.04100
N339        N  0.06432994  0.02930890  0.95753407    -0.60200
Mn340      Mn  0.00514494  0.04539850  0.52404833     1.18400
C341        C  0.07870943  0.99611435  0.94599456     0.98100
C342        C  0.06979143  0.98460532  0.59656732     0.98800
N343        N  0.86066963  0.01341403  0.52223436    -0.06400
N344        N  0.84000090  0.02934368  0.99957115    -0.62700
N345        N  0.86019797  0.96750395  0.60163310    -0.05200
N346        N  0.83492165  0.95244460  0.63079476    -0.63400
N347        N  0.86159017  0.00769850  0.59527129    -0.05900
N348        N  0.83779639  0.02070011  0.62002482    -0.63000
N349        N  0.85992314  0.97325115  0.52844623    -0.04800
N350        N  0.83890277  0.96099811  0.51004475    -0.63700
Mn351      Mn  0.89491500  0.04526394  0.54687406     1.10700
C352        C  0.82663558  0.99627069  0.99215935     0.99300
C353        C  0.82142373  0.98604432  0.64215121     0.99400
N354        N  0.96864303  0.89856792  0.58880508    -0.05900
N355        N  0.98332036  0.87295868  0.61197386    -0.61300
N356        N  0.92659001  0.90644961  0.52420119    -0.05200
N357        N  0.91117678  0.88889961  0.50522235    -0.58000
N358        N  0.96677417  0.90679227  0.51535358    -0.06500
N359        N  0.97947109  0.88940890  0.99018307    -0.60900
N360        N  0.92846703  0.89892037  0.59768721    -0.05500
N361        N  0.91508805  0.87362661  0.62717267    -0.58000
Mn362      Mn  0.00334685  0.93549458  0.54042941     1.20200
Mn363      Mn  0.89285162  0.93542104  0.56359601     1.10100
Cl364      Cl  0.94907331  0.99034505  0.54376834    -0.86000
C365        C  0.94967571  0.85768858  0.63586815     0.96300
C366        C  0.94441672  0.87847739  0.98406479     0.96100
C367        C  0.94353184  0.69598714  0.87817531    -0.01300
C368        C  0.90594801  0.70841202  0.89466130    -0.09400
C369        C  0.90339677  0.74330846  0.90704909    -0.18200
C370        C  0.93895764  0.76603308  0.90415946     0.04200
C371        C  0.97675057  0.75431038  0.88571349     0.18400
C372        C  0.97855032  0.71983725  0.87247623    -0.19600
C373        C  0.01293144  0.77525244  0.88262610    -0.20900
C374        C  0.01291762  0.80574268  0.89944466    -0.19400
C375        C  0.97663175  0.81634637  0.91938075     0.19800
C376        C  0.93886004  0.79794131  0.92086623     0.01900
C377        C  0.90292222  0.81086839  0.94039851    -0.14200
C378        C  0.90485765  0.83821184  0.95979336    -0.11900
C379        C  0.94246760  0.85376070  0.96024651     0.01400
C380        C  0.97810238  0.84396468  0.93899386    -0.24000
H381        H  0.87876741  0.68977837  0.89951189     0.09400
H382        H  0.87356419  0.75022376  0.92036896     0.13000
H383        H  0.00774773  0.70956487  0.86012372     0.11700
H384        H  0.04174279  0.76673390  0.86833243     0.12900
H385        H  0.04170464  0.82018124  0.89771894     0.12000
H386        H  0.87292851  0.79976714  0.94183451     0.09000
H387        H  0.87675003  0.84616656  0.97534907     0.12300
H388        H  0.00725083  0.85666965  0.93860356     0.14200
C389        C  0.94972832  0.66929743  0.81353139    -0.01300
C390        C  0.98373488  0.67302162  0.78670623    -0.09400
C391        C  0.98523212  0.70295140  0.75714056    -0.18200
C392        C  0.95228519  0.72996366  0.75345255     0.04200
C393        C  0.91718027  0.72475824  0.78043241     0.18400
C394        C  0.91643657  0.69497809  0.81011663    -0.19600
C395        C  0.88312157  0.74953881  0.77776828    -0.20900
C396        C  0.88298181  0.77940005  0.74880257    -0.19400
C397        C  0.91726364  0.78595917  0.72199190     0.19800
C398        C  0.95270928  0.76180263  0.72408034     0.01900
C399        C  0.98710893  0.77102773  0.69684644    -0.14200
C400        C  0.98604646  0.80234537  0.66864895    -0.11900
C401        C  0.95063903  0.82520282  0.66630340     0.01400
C402        C  0.91634643  0.81679502  0.69315124    -0.24000
H403        H  0.00979050  0.65351386  0.78910686     0.09400
H404        H  0.01256256  0.70423135  0.73764852     0.13000
H405        H  0.89002453  0.69188193  0.83090213     0.11700
H406        H  0.85624840  0.74564526  0.79820810     0.12900
H407        H  0.85595978  0.79781434  0.74749877     0.12000
H408        H  0.01545380  0.75488312  0.69674582     0.09000
H409        H  0.01305948  0.80836712  0.64835716     0.12300
H410        H  0.88898371  0.83467097  0.69178797     0.14200
C411        C  0.94682346  0.31151310  0.77531628    -0.01300
C412        C  0.91307523  0.30714240  0.80237023    -0.09400
C413        C  0.91208691  0.27683596  0.83153883    -0.18200
C414        C  0.94530249  0.25006224  0.83458608     0.04200
C415        C  0.98042009  0.25623373  0.80759746     0.18400
C416        C  0.98060892  0.28634487  0.77818712    -0.19600
C417        C  0.01497589  0.23211763  0.81004807    -0.20900
C418        C  0.01547342  0.20191464  0.83877757    -0.19400
C419        C  0.98097461  0.19417612  0.86539854     0.19800
C420        C  0.94507777  0.21759618  0.86341907     0.01900
C421        C  0.91030095  0.20694750  0.89012084    -0.14200
C422        C  0.91151356  0.17524185  0.91793365    -0.11900
C423        C  0.94742712  0.15338659  0.92040984     0.01400
C424        C  0.98204317  0.16291369  0.89393256    -0.24000
H425        H  0.88682788  0.32651582  0.80045353     0.09400
H426        H  0.88497338  0.27519905  0.85128873     0.13000
H427        H  0.00695624  0.29019168  0.75729632     0.11700
H428        H  0.04194028  0.23683465  0.78966324     0.12900
H429        H  0.04286311  0.18406908  0.83998712     0.12000
H430        H  0.88149902  0.22216383  0.89004652     0.09000
H431        H  0.88420039  0.16819061  0.93786308     0.12300
H432        H  0.00976435  0.14567523  0.89537117     0.14200
C433        C  0.95146216  0.28703001  0.70999127    -0.01300
C434        C  0.98938665  0.27459936  0.69407951    -0.09400
C435        C  0.99223387  0.24076040  0.68030476    -0.18200
C436        C  0.95671090  0.21915233  0.68129488     0.04200
C437        C  0.91860598  0.23046549  0.69957140     0.18400
C438        C  0.91642659  0.26396713  0.71397666    -0.19600
C439        C  0.88256194  0.21001186  0.70154169    -0.20900
C440        C  0.88311154  0.18005608  0.68414799    -0.19400
C441        C  0.91971815  0.16986924  0.66437045     0.19800
C442        C  0.95724355  0.18843340  0.66332519     0.01900
C443        C  0.99334757  0.17678215  0.64308666    -0.14200
C444        C  0.99191995  0.14939010  0.62359258    -0.11900
C445        C  0.95466454  0.13260981  0.62365439     0.01400
C446        C  0.91879296  0.14221122  0.64471417    -0.24000
H447        H  0.01664702  0.29253031  0.69067843     0.09400
H448        H  0.02237183  0.23359438  0.66771560     0.13000
H449        H  0.88701383  0.27412549  0.72604769     0.11700
H450        H  0.85351833  0.21823264  0.71570424     0.12900
H451        H  0.85449519  0.16565166  0.68536258     0.12000
H452        H  0.02307286  0.18889436  0.64119285     0.09000
H453        H  0.02013274  0.14207048  0.60778790     0.12300
H454        H  0.88987534  0.12893963  0.64519879     0.14200
C455        C  0.93625319  0.40741405  0.76053659    -0.01300
C456        C  0.96599262  0.40480554  0.77881276    -0.09400
C457        C  0.97083272  0.43616277  0.79388103    -0.18200
C458        C  0.94612281  0.47141142  0.79078983     0.04200
C459        C  0.91422819  0.47244156  0.77409567     0.18400
C460        C  0.90963635  0.44065825  0.75925266    -0.19600
C461        C  0.88784306  0.50574777  0.77142662    -0.20900
C462        C  0.89267767  0.53847078  0.78473631    -0.19400
C463        C  0.92447208  0.53905320  0.80052115     0.19800
C464        C  0.95194937  0.50570351  0.80345333     0.01900
C465        C  0.98422202  0.50830106  0.81874650    -0.14200
C466        C  0.98749552  0.54125706  0.83235229    -0.11900
C467        C  0.95919488  0.57295199  0.83092338     0.01400
C468        C  0.92837258  0.57232346  0.81415861    -0.24000
H469        H  0.98714388  0.37964819  0.77990559     0.09400
H470        H  0.99474997  0.43230143  0.80715401     0.13000
H471        H  0.88620244  0.44258339  0.74542043     0.11700
H472        H  0.86332084  0.50654973  0.75885834     0.12900
H473        H  0.87156950  0.56364666  0.78245097     0.12000
H474        H  0.00708801  0.48508580  0.82105507     0.09000
H475        H  0.01157091  0.54127400  0.84522696     0.12300
H476        H  0.90600670  0.59646992  0.81344315     0.14200
C477        C  0.65564422  0.00610855  0.87304009    -0.01300
C478        C  0.67764193  0.97005467  0.87883614    -0.09400
C479        C  0.71108158  0.96836578  0.89310429    -0.18200
C480        C  0.72278368  0.00284850  0.90238470     0.04200
C481        C  0.70314942  0.04052666  0.89264813     0.18400
C482        C  0.66977120  0.04176419  0.87816425    -0.19600
C483        C  0.71491912  0.07604107  0.89966607    -0.20900
C484        C  0.74393481  0.07444018  0.91820076    -0.19400
C485        C  0.76114118  0.03713159  0.93074150     0.19800
C486        C  0.75136608  0.00086352  0.92258431     0.01900
C487        C  0.76853418  0.96376422  0.93682027    -0.14200
C488        C  0.79319346  0.96258724  0.95903628    -0.11900
C489        C  0.80210466  0.99826818  0.96740827     0.01400
C490        C  0.78673745  0.03560092  0.95257052    -0.24000
H491        H  0.66698362  0.94230880  0.87476193     0.09400
H492        H  0.72590031  0.93927283  0.89793654     0.13000
H493        H  0.65258265  0.06969378  0.87346448     0.11700
H494        H  0.70056154  0.10498273  0.89175986     0.12900
H495        H  0.75158217  0.10225720  0.92403196     0.12000
H496        H  0.76238819  0.93491256  0.93219368     0.09000
H497        H  0.80496139  0.93340021  0.97001743     0.12300
H498        H  0.79350841  0.06337528  0.95892392     0.14200
C499        C  0.62692562  0.99893002  0.81178464    -0.01300
C500        C  0.62901858  0.96382579  0.79955958    -0.09400
C501        C  0.65943608  0.96019169  0.77158063    -0.18200
C502        C  0.68863107  0.99196074  0.75486491     0.04200
C503        C  0.68461711  0.02844912  0.76643189     0.18400
C504        C  0.65424823  0.03139801  0.79472373    -0.19600
C505        C  0.71148825  0.06151673  0.75016351    -0.20900
C506        C  0.74268543  0.05911611  0.72276491    -0.19400
C507        C  0.74836337  0.02328126  0.71132294     0.19800
C508        C  0.72175449  0.98895049  0.72732206     0.01900
C509        C  0.73008141  0.95303996  0.71537022    -0.14200
C510        C  0.76292450  0.95168999  0.68833796    -0.11900
C511        C  0.78818623  0.98610240  0.67211592     0.01400
C512        C  0.78074150  0.02166539  0.68394893    -0.24000
H513        H  0.60808366  0.93845732  0.81259703     0.09400
H514        H  0.65963243  0.93205280  0.76382005     0.13000
H515        H  0.65235496  0.05866365  0.80417526     0.11700
H516        H  0.70841281  0.08946263  0.75875126     0.12900
H517        H  0.76290906  0.08534473  0.71069896     0.12000
H518        H  0.71193459  0.92543697  0.72657257     0.09000
H519        H  0.76811086  0.92379569  0.67974530     0.12300
H520        H  0.80039322  0.04832917  0.67182814     0.14200
C521        C  0.27015855  0.00194778  0.77013821    -0.01300
C522        C  0.24666896  0.96627531  0.78522756    -0.09400
C523        C  0.21627218  0.96365686  0.81433673    -0.18200
C524        C  0.20784411  0.99720293  0.82926117     0.04200
C525        C  0.23213110  0.03337677  0.81402512     0.18400
C526        C  0.26330819  0.03526134  0.78490555    -0.19600
C527        C  0.22448803  0.06763523  0.82756656    -0.20900
C528        C  0.19289350  0.06699260  0.85560299    -0.19400
C529        C  0.16830771  0.03192652  0.87110005     0.19800
C530        C  0.17579737  0.99634209  0.85837198     0.01900
C531        C  0.15072284  0.96144908  0.87528856    -0.14200
C532        C  0.11952656  0.96191169  0.90339009    -0.11900
C533        C  0.11175458  0.99706678  0.91566506     0.01400
C534        C  0.13627857  0.03212581  0.89931034    -0.24000
H535        H  0.25174244  0.94031189  0.77409530     0.09400
H536        H  0.19942954  0.93515895  0.82411608     0.13000
H537        H  0.28128662  0.06306821  0.77298737     0.11700
H538        H  0.24278063  0.09533013  0.81615122     0.12900
H539        H  0.18760603  0.09418214  0.86520802     0.12000
H540        H  0.15449669  0.93311033  0.86760584     0.09000
H541        H  0.10117422  0.93441656  0.91554022     0.12300
H542        H  0.13081103  0.05941957  0.90877895     0.14200
C543        C  0.09544072  0.98317006  0.62044399    -0.01300
C544        C  0.11283460  0.94652241  0.63416682    -0.09400
C545        C  0.13990753  0.94604343  0.65447645    -0.18200
C546        C  0.15055054  0.98252670  0.66154470     0.04200
C547        C  0.13104937  0.01918669  0.64888613     0.18400
C548        C  0.10380746  0.01912999  0.62869385    -0.19600
C549        C  0.13991599  0.05608358  0.65540535    -0.20900
C550        C  0.16943435  0.05791612  0.67280037    -0.19400
C551        C  0.19087716  0.02292618  0.68398349     0.19800
C552        C  0.18109227  0.98443851  0.67932861     0.01900
C553        C  0.20405112  0.95014406  0.69093729    -0.14200
C554        C  0.23753913  0.95473900  0.70374813    -0.11900
C555        C  0.24816290  0.99312537  0.70641877     0.01400
C556        C  0.22385572  0.02674556  0.69787069    -0.24000
H557        H  0.10633208  0.91822781  0.62851072     0.09400
H558        H  0.15259336  0.91683733  0.66366352     0.13000
H559        H  0.08991891  0.04753674  0.61861169     0.11700
H560        H  0.12476962  0.08400607  0.64612351     0.12900
H561        H  0.17656611  0.08722893  0.67648583     0.12000
H562        H  0.19825811  0.91983486  0.68890188     0.09000
H563        H  0.25650319  0.92858302  0.71004627     0.12300
H564        H  0.23269352  0.05656867  0.69953809     0.14200
C565        C  0.53011508  0.99205069  0.83356995    -0.01300
C566        C  0.49581284  0.96614827  0.84758278    -0.09400
C567        C  0.46305229  0.96944427  0.83249614    -0.18200
C568        C  0.46335240  0.99929298  0.80275333     0.04200
C569        C  0.49908217  0.02435050  0.78780624     0.18400
C570        C  0.53207994  0.02043207  0.80321264    -0.19600
C571        C  0.50120911  0.05390598  0.75803019    -0.20900
C572        C  0.46871821  0.05905430  0.74265634    -0.19400
C573        C  0.43314974  0.03500980  0.75681529     0.19800
C574        C  0.42961284  0.00511137  0.78727619     0.01900
C575        C  0.39259429  0.98216601  0.80064837    -0.14200
C576        C  0.36169126  0.98679968  0.78328513    -0.11900
C577        C  0.36639572  0.01482273  0.75244267     0.01400
C578        C  0.40159604  0.03979064  0.74001169    -0.24000
H579        H  0.49373529  0.94397420  0.87109202     0.09400
H580        H  0.43771460  0.94864945  0.84506203     0.13000
H581        H  0.55818449  0.04110137  0.79256699     0.11700
H582        H  0.52824217  0.07312494  0.74649724     0.12900
H583        H  0.47152175  0.08190126  0.71939660     0.12000
H584        H  0.38704328  0.95953664  0.82396427     0.09000
H585        H  0.33524496  0.96658996  0.79317409     0.12300
H586        H  0.40531764  0.06176439  0.71619175     0.14200
loop_ 
_geom_bond_atom_site_label_1 
_geom_bond_atom_site_label_2 
_geom_bond_distance 
_geom_bond_site_symmetry_2 
_ccdc_geom_bond_type 
N1            C5   1.356   1_545  A
N1            C2   1.360       .  A
N1          C228   1.442       .  S
C2            C3   1.387       .  A
C2          C284   1.481       .  S
C3            C4   1.370       .  A
C3            H6   1.082       .  S
C4            C5   1.377   1_545  A
C4            H7   1.082       .  S
C5          C262   1.469       .  S
N8           C12   1.354   1_565  A
N8            C9   1.360       .  A
N8          C206   1.441       .  S
C9           C10   1.385       .  A
C9          C272   1.478       .  S
C10          C11   1.370   1_565  A
C10          H13   1.082       .  S
C11          C12   1.378       .  A
C11          H14   1.082       .  S
C12         C184   1.468       .  S
N15          C19   1.354       .  A
N15          C16   1.360       .  A
N15         C118   1.440       .  S
C16          C17   1.385       .  A
C16         C162   1.481       .  S
C17          C18   1.372       .  A
C17          H20   1.082       .  S
C18          C19   1.378       .  A
C18          H21   1.082       .  S
C19         C140   1.468       .  S
N22          C26   1.355       .  A
N22          C23   1.359       .  A
N22          C96   1.441       .  S
C23          C24   1.385       .  A
C23         C174   1.478       .  S
C24          C25   1.371       .  A
C24          H27   1.082       .  S
C25          C26   1.378       .  A
C25          H28   1.082       .  S
C26          C74   1.468       .  S
N29          N30   1.321       .  A
N29          N35   1.315       .  A
N29         Mn58   2.196       .  S
N30          C37   1.354       .  A
N31          N33   1.316       .  A
N31          N32   1.323       .  A
N31        Mn340   2.211   1_655  S
N32          C38   1.356       .  A
N33          N34   1.320       .  A
N33        Mn351   2.207       .  S
N34          C38   1.353       .  A
N35          N36   1.319       .  A
N35         Mn47   2.201   1_655  S
N36          C37   1.353       .  A
C37         C152   1.477       .  S
C38         C130   1.483       .  S
N39          N45   1.316   1_565  A
N39          N40   1.321       .  A
N39        Mn362   2.214       .  S
N40          C48   1.355       .  A
N41          N42   1.318       .  A
N41          N43   1.316   1_545  A
N41         Mn47   2.200       .  S
N42          C49   1.352   1_545  A
N43          N44   1.322       .  A
N43         Mn69   2.205       .  S
N44          C49   1.355       .  A
N45          N46   1.324       .  A
N45        Mn340   2.208       .  S
N46          C48   1.355   1_545  A
Mn47        N324   2.211   1_454  S
Mn47        N338   2.208   1_554  S
Mn47        Cl71   2.553   1_445  S
C48         C240   1.486       .  S
C49         C250   1.477       .  S
N50          N56   1.315   1_545  A
N50         N344   1.321   1_554  A
N50         Mn58   2.199       .  S
N51          C59   1.354   1_545  A
N51         N343   1.321       .  A
N52          N54   1.316   1_565  A
N52          N53   1.324       .  A
N52         Mn70   2.217       .  S
N53          C60   1.357       .  A
N54          N55   1.319       .  A
N54         Mn58   2.206       .  S
N55          C60   1.353   1_545  A
N56          N57   1.320       .  A
N56         Mn70   2.201       .  S
N57         C352   1.353   1_554  A
Mn58        N326   2.207   1_554  S
Mn58        Cl71   2.545   1_545  S
C59         N350   1.353       .  A
C59         C196   1.477       .  S
C60         C218   1.485       .  S
N61          N62   1.321       .  A
N61          N67   1.316       .  A
N61         Mn69   2.213   1_655  S
N62          C72   1.354       .  A
N63          N64   1.319       .  A
N63          N65   1.316       .  A
N63         Mn70   2.205       .  S
N64         C366   1.353   1_554  A
N65         N359   1.321   1_554  A
N65         Mn69   2.202   1_655  S
N66          C73   1.354       .  A
N66         N358   1.321       .  A
N67          N68   1.323       .  A
N67         Mn70   2.214       .  S
N68          C72   1.356       .  A
Mn69        N332   2.214   1_554  S
Mn69        Cl71   2.547   1_455  S
Mn70        Cl71   2.553       .  S
C72         C108   1.486       .  S
C73         N357   1.353       .  A
C73          C86   1.478       .  S
C74          C75   1.395       .  A
C74          C79   1.397       .  A
C75          C76   1.395       .  A
C75          H88   1.084       .  S
C76          C77   1.416       .  A
C76          H89   1.076       .  S
C77          C83   1.428       .  A
C77          C78   1.423       .  A
C78          C80   1.399   1_655  A
C78          C79   1.404       .  A
C79          H90   1.085   1_655  S
C80          C81   1.390       .  A
C80          H91   1.084       .  S
C81          C82   1.400   1_455  A
C81          H92   1.084       .  S
C82          C83   1.422       .  A
C82          C87   1.406       .  A
C83          C84   1.414       .  A
C84          C85   1.394       .  A
C84          H93   1.077       .  S
C85          C86   1.400       .  A
C85          H94   1.083       .  S
C86          C87   1.401       .  A
C87          H95   1.084   1_655  S
C96          C97   1.398       .  A
C96         C101   1.400       .  A
C97          C98   1.401       .  A
C97         H110   1.083   1_655  S
C98          C99   1.418       .  A
C98         H111   1.078   1_655  S
C99         C105   1.435       .  A
C99         C100   1.423       .  A
C100        C102   1.400       .  A
C100        C101   1.406       .  A
C101        H112   1.084       .  S
C102        C103   1.391       .  A
C102        H113   1.084       .  S
C103        C104   1.400       .  A
C103        H114   1.084       .  S
C104        C105   1.424       .  A
C104        C109   1.409       .  A
C105        C106   1.415       .  A
C106        C107   1.400       .  A
C106        H115   1.078   1_655  S
C107        C108   1.402       .  A
C107        H116   1.083   1_655  S
C108        C109   1.402       .  A
C109        H117   1.084       .  S
C118        C119   1.397       .  A
C118        C123   1.400       .  A
C119        C120   1.398       .  A
C119        H132   1.083       .  S
C120        C121   1.417       .  A
C120        H133   1.078       .  S
C121        C127   1.432       .  A
C121        C122   1.422       .  A
C122        C124   1.400   1_655  A
C122        C123   1.407       .  A
C123        H134   1.084   1_655  S
C124        C125   1.392       .  A
C124        H135   1.084       .  S
C125        C126   1.400   1_455  A
C125        H136   1.084       .  S
C126        C127   1.423       .  A
C126        C131   1.409       .  A
C127        C128   1.414       .  A
C128        C129   1.397       .  A
C128        H137   1.078       .  S
C129        C130   1.401       .  A
C129        H138   1.083       .  S
C130        C131   1.402       .  A
C131        H139   1.084   1_655  S
C140        C141   1.395       .  A
C140        C145   1.396       .  A
C141        C142   1.396       .  A
C141        H154   1.084   1_655  S
C142        C143   1.416       .  A
C142        H155   1.077   1_655  S
C143        C149   1.429       .  A
C143        C144   1.423       .  A
C144        C146   1.399       .  A
C144        C145   1.404       .  A
C145        H156   1.085       .  S
C146        C147   1.389       .  A
C146        H157   1.084       .  S
C147        C148   1.399       .  A
C147        H158   1.084       .  S
C148        C149   1.423       .  A
C148        C153   1.404       .  A
C149        C150   1.415       .  A
C150        C151   1.395       .  A
C150        H159   1.077   1_655  S
C151        C152   1.400       .  A
C151        H160   1.083   1_655  S
C152        C153   1.400       .  A
C153        H161   1.084       .  S
C162        C163   1.398       .  A
C162        C167   1.403       .  A
C163        C164   1.399       .  A
C163        H176   1.083       .  S
C164        C165   1.418       .  A
C164        H177   1.078       .  S
C165        C171   1.430       .  A
C165        C166   1.420       .  A
C166        C168   1.400       .  A
C166        C167   1.403       .  A
C167        H178   1.085       .  S
C168        C169   1.391       .  A
C168        H179   1.084       .  S
C169        C170   1.399       .  A
C169        H180   1.084       .  S
C170        C171   1.425       .  A
C170        C175   1.409       .  A
C171        C172   1.412       .  A
C172        C173   1.393       .  A
C172        H181   1.077   1_655  S
C173        C174   1.400       .  A
C173        H182   1.084   1_655  S
C174        C175   1.399       .  A
C175        H183   1.084       .  S
C184        C185   1.396   1_545  A
C184        C189   1.396       .  A
C185        C186   1.397       .  A
C185        H198   1.084       .  S
C186        C187   1.416   1_565  A
C186        H199   1.077       .  S
C187        C193   1.428       .  A
C187        C188   1.422       .  A
C188        C190   1.399       .  A
C188        C189   1.402       .  A
C189        H200   1.085       .  S
C190        C191   1.389       .  A
C190        H201   1.084       .  S
C191        C192   1.400       .  A
C191        H202   1.084       .  S
C192        C193   1.423       .  A
C192        C197   1.404       .  A
C193        C194   1.414   1_545  A
C194        C195   1.396       .  A
C194        H203   1.077       .  S
C195        C196   1.400       .  A
C195        H204   1.083       .  S
C196        C197   1.401   1_565  A
C197        H205   1.084       .  S
C206        C207   1.398       .  A
C206        C211   1.399   1_565  A
C207        C208   1.402       .  A
C207        H220   1.083       .  S
C208        C209   1.417       .  A
C208        H221   1.078       .  S
C209        C215   1.435       .  A
C209        C210   1.423   1_565  A
C210        C212   1.399       .  A
C210        C211   1.405       .  A
C211        H222   1.084       .  S
C212        C213   1.389       .  A
C212        H223   1.084       .  S
C213        C214   1.399       .  A
C213        H224   1.084       .  S
C214        C215   1.423   1_545  A
C214        C219   1.405       .  A
C215        C216   1.417       .  A
C216        C217   1.403       .  A
C216        H225   1.078       .  S
C217        C218   1.401       .  A
C217        H226   1.083       .  S
C218        C219   1.402   1_565  A
C219        H227   1.085       .  S
C228        C229   1.397   1_545  A
C228        C233   1.402       .  A
C229        C230   1.395       .  A
C229        H242   1.083       .  S
C230        C231   1.415       .  A
C230        H243   1.077       .  S
C231        C237   1.433       .  A
C231        C232   1.424   1_565  A
C232        C234   1.401       .  A
C232        C233   1.412       .  A
C233        H244   1.084       .  S
C234        C235   1.395       .  A
C234        H245   1.084       .  S
C235        C236   1.402       .  A
C235        H246   1.084       .  S
C236        C237   1.423   1_545  A
C236        C241   1.413       .  A
C237        C238   1.415       .  A
C238        C239   1.396       .  A
C238        H247   1.077       .  S
C239        C240   1.399       .  A
C239        H248   1.083       .  S
C240        C241   1.406   1_565  A
C241        H249   1.084       .  S
C250        C251   1.399       .  A
C250        C255   1.400   1_565  A
C251        C252   1.398       .  A
C251        H264   1.083       .  S
C252        C253   1.416       .  A
C252        H265   1.077       .  S
C253        C259   1.430       .  A
C253        C254   1.422   1_565  A
C254        C256   1.399       .  A
C254        C255   1.402       .  A
C255        H266   1.084       .  S
C256        C257   1.388       .  A
C256        H267   1.084       .  S
C257        C258   1.398       .  A
C257        H268   1.084       .  S
C258        C259   1.424   1_545  A
C258        C263   1.403       .  A
C259        C260   1.416       .  A
C260        C261   1.396       .  A
C260        H269   1.077       .  S
C261        C262   1.396       .  A
C261        H270   1.084       .  S
C262        C263   1.395   1_565  A
C263        H271   1.085       .  S
C272        C273   1.400       .  A
C272        C277   1.399   1_565  A
C273        C274   1.393       .  A
C273        H286   1.084       .  S
C274        C275   1.412       .  A
C274        H287   1.077       .  S
C275        C281   1.430   1_565  A
C275        C276   1.425   1_565  A
C276        C278   1.398       .  A
C276        C277   1.408       .  A
C277        H288   1.084       .  S
C278        C279   1.390       .  A
C278        H289   1.084       .  S
C279        C280   1.400       .  A
C279        H290   1.084       .  S
C280        C281   1.420       .  A
C280        C285   1.402       .  A
C281        C282   1.418   1_545  A
C282        C283   1.399       .  A
C282        H291   1.077       .  S
C283        C284   1.398   1_565  A
C283        H292   1.082       .  S
C284        C285   1.403       .  A
C285        H293   1.085       .  S
N294        C298   1.356   1_545  A
N294        C295   1.360       .  A
N294        C521   1.442       .  S
C295        C296   1.387       .  A
C295        C577   1.481       .  S
C296        C297   1.370       .  A
C296        H299   1.082       .  S
C297        C298   1.377   1_545  A
C297        H300   1.082       .  S
C298        C555   1.469       .  S
N301        C305   1.354   1_565  A
N301        C302   1.360       .  A
N301        C499   1.441       .  S
C302        C303   1.385       .  A
C302        C565   1.478       .  S
C303        C304   1.370   1_565  A
C303        H306   1.082       .  S
C304        C305   1.378       .  A
C304        H307   1.082       .  S
C305        C477   1.468       .  S
N308        C312   1.354       .  A
N308        C309   1.360       .  A
N308        C411   1.440       .  S
C309        C310   1.385       .  A
C309        C455   1.481       .  S
C310        C311   1.372       .  A
C310        H313   1.082       .  S
C311        C312   1.378       .  A
C311        H314   1.082       .  S
C312        C433   1.468       .  S
N315        C319   1.355       .  A
N315        C316   1.359       .  A
N315        C389   1.441       .  S
C316        C317   1.385       .  A
C316        C467   1.478       .  S
C317        C318   1.371       .  A
C317        H320   1.082       .  S
C318        C319   1.378       .  A
C318        H321   1.082       .  S
C319        C367   1.468       .  S
N322        N323   1.321       .  A
N322        N328   1.315       .  A
N322       Mn351   2.196       .  S
N323        C330   1.354       .  A
N324        N326   1.316       .  A
N324        N325   1.323       .  A
N325        C331   1.356       .  A
N326        N327   1.320       .  A
N327        C331   1.353       .  A
N328        N329   1.319       .  A
N328       Mn340   2.201   1_655  S
N329        C330   1.353       .  A
C330        C445   1.477       .  S
C331        C423   1.483       .  S
N332        N338   1.316   1_565  A
N332        N333   1.321       .  A
N333        C341   1.355       .  A
N334        N335   1.318       .  A
N334        N336   1.316   1_545  A
N334       Mn340   2.200       .  S
N335        C342   1.352   1_545  A
N336        N337   1.322       .  A
N336       Mn362   2.205       .  S
N337        C342   1.355       .  A
N338        N339   1.324       .  A
N339        C341   1.355   1_545  A
Mn340      Cl364   2.553   1_445  S
C341        C533   1.486       .  S
C342        C543   1.477       .  S
N343        N349   1.315   1_545  A
N343       Mn351   2.199       .  S
N344        C352   1.354   1_545  A
N345        N347   1.316   1_565  A
N345        N346   1.324       .  A
N345       Mn363   2.217       .  S
N346        C353   1.357       .  A
N347        N348   1.319       .  A
N347       Mn351   2.206       .  S
N348        C353   1.353   1_545  A
N349        N350   1.320       .  A
N349       Mn363   2.201       .  S
Mn351      Cl364   2.545   1_545  S
C352        C489   1.477       .  S
C353        C511   1.485       .  S
N354        N355   1.321       .  A
N354        N360   1.316       .  A
N354       Mn362   2.213   1_655  S
N355        C365   1.354       .  A
N356        N357   1.319       .  A
N356        N358   1.316       .  A
N356       Mn363   2.205       .  S
N358       Mn362   2.202   1_655  S
N359        C366   1.354       .  A
N360        N361   1.323       .  A
N360       Mn363   2.214       .  S
N361        C365   1.356       .  A
Mn362      Cl364   2.547   1_455  S
Mn363      Cl364   2.553       .  S
C365        C401   1.486       .  S
C366        C379   1.478       .  S
C367        C368   1.395       .  A
C367        C372   1.397       .  A
C368        C369   1.395       .  A
C368        H381   1.084       .  S
C369        C370   1.416       .  A
C369        H382   1.076       .  S
C370        C376   1.428       .  A
C370        C371   1.423       .  A
C371        C373   1.399   1_655  A
C371        C372   1.404       .  A
C372        H383   1.085   1_655  S
C373        C374   1.390       .  A
C373        H384   1.084       .  S
C374        C375   1.400   1_455  A
C374        H385   1.084       .  S
C375        C376   1.423       .  A
C375        C380   1.406       .  A
C376        C377   1.414       .  A
C377        C378   1.394       .  A
C377        H386   1.077       .  S
C378        C379   1.400       .  A
C378        H387   1.083       .  S
C379        C380   1.401       .  A
C380        H388   1.084   1_655  S
C389        C390   1.398       .  A
C389        C394   1.400       .  A
C390        C391   1.401       .  A
C390        H403   1.083   1_655  S
C391        C392   1.418       .  A
C391        H404   1.078   1_655  S
C392        C398   1.435       .  A
C392        C393   1.423       .  A
C393        C395   1.400       .  A
C393        C394   1.406       .  A
C394        H405   1.084       .  S
C395        C396   1.391       .  A
C395        H406   1.084       .  S
C396        C397   1.400       .  A
C396        H407   1.084       .  S
C397        C398   1.424       .  A
C397        C402   1.409       .  A
C398        C399   1.415       .  A
C399        C400   1.400       .  A
C399        H408   1.078   1_655  S
C400        C401   1.402       .  A
C400        H409   1.083   1_655  S
C401        C402   1.402       .  A
C402        H410   1.084       .  S
C411        C412   1.397       .  A
C411        C416   1.400       .  A
C412        C413   1.398       .  A
C412        H425   1.083       .  S
C413        C414   1.417       .  A
C413        H426   1.078       .  S
C414        C420   1.432       .  A
C414        C415   1.422       .  A
C415        C417   1.400   1_655  A
C415        C416   1.407       .  A
C416        H427   1.084   1_655  S
C417        C418   1.392       .  A
C417        H428   1.084       .  S
C418        C419   1.400   1_455  A
C418        H429   1.084       .  S
C419        C420   1.423       .  A
C419        C424   1.409       .  A
C420        C421   1.414       .  A
C421        C422   1.397       .  A
C421        H430   1.078       .  S
C422        C423   1.401       .  A
C422        H431   1.083       .  S
C423        C424   1.402       .  A
C424        H432   1.084   1_655  S
C433        C434   1.395       .  A
C433        C438   1.396       .  A
C434        C435   1.396       .  A
C434        H447   1.084   1_655  S
C435        C436   1.416       .  A
C435        H448   1.077   1_655  S
C436        C442   1.429       .  A
C436        C437   1.423       .  A
C437        C439   1.399       .  A
C437        C438   1.404       .  A
C438        H449   1.085       .  S
C439        C440   1.389       .  A
C439        H450   1.084       .  S
C440        C441   1.399       .  A
C440        H451   1.084       .  S
C441        C442   1.423       .  A
C441        C446   1.404       .  A
C442        C443   1.415       .  A
C443        C444   1.395       .  A
C443        H452   1.077   1_655  S
C444        C445   1.400       .  A
C444        H453   1.083   1_655  S
C445        C446   1.400       .  A
C446        H454   1.084       .  S
C455        C456   1.398       .  A
C455        C460   1.403       .  A
C456        C457   1.399       .  A
C456        H469   1.083       .  S
C457        C458   1.418       .  A
C457        H470   1.078       .  S
C458        C464   1.430       .  A
C458        C459   1.420       .  A
C459        C461   1.400       .  A
C459        C460   1.403       .  A
C460        H471   1.085       .  S
C461        C462   1.391       .  A
C461        H472   1.084       .  S
C462        C463   1.399       .  A
C462        H473   1.084       .  S
C463        C464   1.425       .  A
C463        C468   1.409       .  A
C464        C465   1.412       .  A
C465        C466   1.393       .  A
C465        H474   1.077   1_655  S
C466        C467   1.400       .  A
C466        H475   1.084   1_655  S
C467        C468   1.399       .  A
C468        H476   1.084       .  S
C477        C478   1.396   1_545  A
C477        C482   1.396       .  A
C478        C479   1.397       .  A
C478        H491   1.084       .  S
C479        C480   1.416   1_565  A
C479        H492   1.077       .  S
C480        C486   1.428       .  A
C480        C481   1.422       .  A
C481        C483   1.399       .  A
C481        C482   1.402       .  A
C482        H493   1.085       .  S
C483        C484   1.389       .  A
C483        H494   1.084       .  S
C484        C485   1.400       .  A
C484        H495   1.084       .  S
C485        C486   1.423       .  A
C485        C490   1.404       .  A
C486        C487   1.414   1_545  A
C487        C488   1.396       .  A
C487        H496   1.077       .  S
C488        C489   1.400       .  A
C488        H497   1.083       .  S
C489        C490   1.401   1_565  A
C490        H498   1.084       .  S
C499        C500   1.398       .  A
C499        C504   1.399   1_565  A
C500        C501   1.402       .  A
C500        H513   1.083       .  S
C501        C502   1.417       .  A
C501        H514   1.078       .  S
C502        C508   1.435       .  A
C502        C503   1.423   1_565  A
C503        C505   1.399       .  A
C503        C504   1.405       .  A
C504        H515   1.084       .  S
C505        C506   1.389       .  A
C505        H516   1.084       .  S
C506        C507   1.399       .  A
C506        H517   1.084       .  S
C507        C508   1.423   1_545  A
C507        C512   1.405       .  A
C508        C509   1.417       .  A
C509        C510   1.403       .  A
C509        H518   1.078       .  S
C510        C511   1.401       .  A
C510        H519   1.083       .  S
C511        C512   1.402   1_565  A
C512        H520   1.085       .  S
C521        C522   1.397   1_545  A
C521        C526   1.402       .  A
C522        C523   1.395       .  A
C522        H535   1.083       .  S
C523        C524   1.415       .  A
C523        H536   1.077       .  S
C524        C530   1.433       .  A
C524        C525   1.424   1_565  A
C525        C527   1.401       .  A
C525        C526   1.412       .  A
C526        H537   1.084       .  S
C527        C528   1.395       .  A
C527        H538   1.084       .  S
C528        C529   1.402       .  A
C528        H539   1.084       .  S
C529        C530   1.423   1_545  A
C529        C534   1.413       .  A
C530        C531   1.415       .  A
C531        C532   1.396       .  A
C531        H540   1.077       .  S
C532        C533   1.399       .  A
C532        H541   1.083       .  S
C533        C534   1.406   1_565  A
C534        H542   1.084       .  S
C543        C544   1.399       .  A
C543        C548   1.400   1_565  A
C544        C545   1.398       .  A
C544        H557   1.083       .  S
C545        C546   1.416       .  A
C545        H558   1.077       .  S
C546        C552   1.430       .  A
C546        C547   1.422   1_565  A
C547        C549   1.399       .  A
C547        C548   1.402       .  A
C548        H559   1.084       .  S
C549        C550   1.388       .  A
C549        H560   1.084       .  S
C550        C551   1.398       .  A
C550        H561   1.084       .  S
C551        C552   1.424   1_545  A
C551        C556   1.403       .  A
C552        C553   1.416       .  A
C553        C554   1.396       .  A
C553        H562   1.077       .  S
C554        C555   1.396       .  A
C554        H563   1.084       .  S
C555        C556   1.395   1_565  A
C556        H564   1.085       .  S
C565        C566   1.400       .  A
C565        C570   1.399   1_565  A
C566        C567   1.393       .  A
C566        H579   1.084       .  S
C567        C568   1.412       .  A
C567        H580   1.077       .  S
C568        C574   1.430   1_565  A
C568        C569   1.425   1_565  A
C569        C571   1.398       .  A
C569        C570   1.408       .  A
C570        H581   1.084       .  S
C571        C572   1.390       .  A
C571        H582   1.084       .  S
C572        C573   1.400       .  A
C572        H583   1.084       .  S
C573        C574   1.420       .  A
C573        C578   1.402       .  A
C574        C575   1.418   1_545  A
C575        C576   1.399       .  A
C575        H584   1.077       .  S
C576        C577   1.398   1_565  A
C576        H585   1.082       .  S
C577        C578   1.403       .  A
C578        H586   1.085       .  S
