geometry optimzed in LAMMPS
_audit_creation_date              2020-11-30 
_audit_creation_method            'lammps2cif' 
_symmetry_space_group_name_H-M    'P1' 
_symmetry_Int_Tables_number       1 
_symmetry_cell_setting            triclinic 
loop_ 
_symmetry_equiv_pos_as_xyz 
  x,y,z 
_cell_length_a                    38.72570383 
_cell_length_b                    38.74109276046615 
_cell_length_c                    33.775693443155916 
_cell_angle_alpha                 90.28193221604805 
_cell_angle_beta                  89.54354571793088 
_cell_angle_gamma                 90.01033671604272 
loop_ 
_atom_site_label 
_atom_site_type_symbol 
_atom_site_fract_x 
_atom_site_fract_y 
_atom_site_fract_z 
_atom_site_charge 
C1          C  0.17885968  0.50286072  0.16345406     0.03200
C2          C  0.16077841  0.50420739  0.12758139    -0.13000
C3          C  0.12483117  0.99828016  0.12805456     0.00700
C4          C  0.10657561  0.99813374  0.16405098    -0.11500
C5          C  0.12438431  0.99789135  0.19999848     0.03200
C6          C  0.16036071  0.50369632  0.19940801    -0.10900
H7          H  0.17480420  0.50447322  0.09969268     0.08800
H8          H  0.07857856  0.99869455  0.16409547     0.06300
H9          H  0.17409103  0.50283535  0.22723253     0.06200
C10         C  0.32828884  0.49745186  0.16741170     0.03200
C11         C  0.34634046  0.49561107  0.20329661    -0.13000
C12         C  0.38241954  0.99549122  0.20264665     0.00700
C13         C  0.40042930  0.99401085  0.16655189    -0.11500
C14         C  0.38250728  0.99545995  0.13075976     0.03200
C15         C  0.34670587  0.49546012  0.13148029    -0.10900
H16         H  0.33239808  0.49664131  0.23121873     0.08800
H17         H  0.42837527  0.99219698  0.16631941     0.06300
H18         H  0.33304682  0.49710798  0.10365591     0.06200
C19         C  0.00979715  0.17664996  0.16582437     0.03200
C20         C  0.00872333  0.15814018  0.12999036    -0.13000
C21         C  0.00669226  0.12203663  0.13009636     0.00700
C22         C  0.00568111  0.10425083  0.16604196    -0.11500
C23         C  0.00672351  0.12242115  0.20193077     0.03200
C24         C  0.00874200  0.15859070  0.20183725    -0.10900
H25         H  0.00900136  0.17186592  0.10209312     0.08800
H26         H  0.00373337  0.07632449  0.16609029     0.06300
H27         H  0.00856386  0.17265827  0.22965376     0.06200
C28         C  0.00573028  0.32605745  0.16238717     0.03200
C29         C  0.00580701  0.34439746  0.19837607    -0.13000
C30         C  0.00569311  0.38058134  0.19854354     0.00700
C31         C  0.00567141  0.39857447  0.16271630    -0.11500
C32         C  0.00582861  0.38055237  0.12669944     0.03200
C33         C  0.00596641  0.34434436  0.12652688    -0.10900
H34         H  0.00604257  0.33051858  0.22616628     0.08800
H35         H  0.00590130  0.42656760  0.16286204     0.06300
H36         H  0.00680933  0.33045431  0.09860262     0.06200
C37         C  0.00710648  0.39972214  0.08941443     0.42500
N38         N  0.49576175  0.42799542  0.04137655     0.01400
C39         C  0.09241356  0.03054474  0.25721345    -0.06500
H40         H  0.09689703  0.05779795  0.07951095     0.06900
C41         C  0.46565026  0.08847385  0.07377011    -0.06800
Co42       Co  0.05052797  0.45966967  0.32987889     0.74200
N43         N  0.07415132  0.01929155  0.04122410    -0.26000
Co44       Co  0.04656710  0.04594502  0.33141731     0.74100
C45         C  0.00437866  0.10286959  0.09275657     0.42600
N46         N  0.43001073  0.01167129  0.04241610     0.01000
N47         N  0.01875436  0.07239404  0.04241656     0.01100
N48         N  0.09416238  0.47811329  0.25684629    -0.46800
H49         H  0.06454696  0.41118679  0.07780947     0.06900
N50         N  0.07611795  0.49036773  0.04033475     0.01400
N51         N  0.01864274  0.07206874  0.28840072     0.01200
C52         C  0.00432947  0.10348955  0.23933090     0.42800
N53         N  0.43464131  0.47458904  0.04295846    -0.25400
C54         C  0.03708737  0.41383324  0.25530015    -0.06400
N55         N  0.48552327  0.40810674  0.07104204    -0.46600
N56         N  0.03158834  0.09102728  0.25929006    -0.46800
C57         C  0.00668825  0.39972877  0.23601789     0.42500
N58         N  0.07536721  0.48960512  0.28710606     0.01400
N59         N  0.43582235  0.47565102  0.28934202    -0.25500
N60         N  0.02524876  0.43259365  0.04004156    -0.26000
N61         N  0.43197174  0.01140716  0.28898648     0.01000
H62         H  0.41771124  0.43492886  0.25071774     0.06900
H63         H  0.44117601  0.08953556  0.25055807     0.07000
N64         N  0.07390412  0.01877628  0.28801165    -0.26000
N65         N  0.47837959  0.07136620  0.04219460    -0.25600
N66         N  0.49711637  0.42905548  0.28832005     0.01400
C67         C  0.10592169  0.00003235  0.09061898     0.42800
C68         C  0.41821473  0.46111167  0.07444041    -0.06900
N69         N  0.48109520  0.07059678  0.28921685    -0.25600
H70         H  0.43876277  0.08995355  0.08249025     0.07000
N71         N  0.09494370  0.47860197  0.06997053    -0.46800
H72         H  0.41770024  0.43415516  0.08257252     0.06900
C73         C  0.40160882  0.99459022  0.23989159     0.42600
C74         C  0.03762296  0.41418623  0.07030953    -0.06400
Co75       Co  0.46623701  0.45175227  0.33206577     0.73800
N76         N  0.41077038  0.02288113  0.07242570    -0.46600
C77         C  0.10520077  0.99958701  0.23750825     0.42900
N78         N  0.48647396  0.40898210  0.25897487    -0.46600
Co79       Co  0.45595212  0.04129894  0.33239373     0.73900
C80         C  0.46813618  0.08793457  0.25842805    -0.06900
C81         C  0.09289756  0.03100539  0.07168001    -0.06400
N82         N  0.02451028  0.43196187  0.28611241    -0.26000
N83         N  0.03167499  0.09083160  0.07193404    -0.46700
H84         H  0.09629143  0.05734356  0.24956245     0.06900
C85         C  0.41851197  0.46196016  0.25878931    -0.06900
Cl86       Cl  0.00287538  0.00006888  0.33132068    -0.49900
C87         C  0.40156633  0.99467138  0.09315649     0.42700
H88         H  0.06407018  0.41073705  0.24760294     0.06900
N89         N  0.41193662  0.02276377  0.26020241    -0.46600
C90         C  0.03562139  0.27102270  0.17781683    -0.20200
C91         C  0.00651825  0.28777679  0.16250569    -0.06800
C92         C  0.97851297  0.26786946  0.14854708     0.14100
C93         C  0.98042364  0.23169453  0.14997805    -0.20300
C94         C  0.00947602  0.21492865  0.16533495    -0.06800
C95         C  0.03752343  0.23480762  0.17923940     0.14100
C96         C  0.06982207  0.21793043  0.19446153    -0.23600
H97         H  0.05705477  0.28641625  0.18842677     0.15300
H98         H  0.45584264  0.22029966  0.13993671     0.15400
C99         C  0.44768305  0.28939553  0.13463413    -0.23600
H100        H  0.08972705  0.23730590  0.20256862     0.05600
H101        H  0.08093999  0.20074544  0.17124817     0.08800
H102        H  0.55917405  0.19889345  0.22290356     0.08800
H103        H  0.95206157  0.29995705  0.10647687     0.08800
H104        H  0.43753410  0.30720698  0.15780290     0.08800
H105        H  0.42659522  0.27141960  0.12624542     0.05600
C106        C  0.27162349  0.47239185  0.14940481    -0.20200
C107        C  0.29003670  0.49955362  0.16701296    -0.06800
C108        C  0.27128098  0.03032714  0.16406037     0.14100
C109        C  0.23500766  0.02931526  0.16291390    -0.20300
C110        C  0.21713242  0.50127573  0.16364242    -0.06800
C111        C  0.23542102  0.47281690  0.14758910     0.14100
C112        C  0.21690662  0.44230957  0.12975792    -0.23600
H113        H  0.28573990  0.45053921  0.13730274     0.15300
H114        H  0.22045088  0.05313729  0.16094984     0.15400
C115        C  0.28970014  0.06452469  0.16236152    -0.23600
H116        H  0.23518357  0.42155738  0.12077282     0.05600
H117        H  0.20267858  0.45023564  0.10295617     0.08800
H118        H  0.19849551  0.43137918  0.15172785     0.08800
H119        H  0.30694417  0.06525848  0.13596046     0.08800
H120        H  0.30538923  0.06810474  0.18944697     0.08800
H121        H  0.27127921  0.08641082  0.16039701     0.05600
C122        C  0.17940337  0.50153601  0.49660045     0.03200
C123        C  0.16122588  0.50100472  0.46073849    -0.13000
C124        C  0.12351405  0.99854656  0.46156355     0.00700
C125        C  0.10628655  0.00009257  0.49812926    -0.11500
C126        C  0.12512922  0.00034461  0.53332951     0.03200
C127        C  0.16112551  0.50334921  0.53258633    -0.10900
H128        H  0.17525101  0.49976422  0.43286513     0.08800
H129        H  0.07832272  0.00143011  0.49917896     0.06300
H130        H  0.17503547  0.50350243  0.56031640     0.06200
C131        C  0.32852546  0.49654030  0.49917970     0.03200
C132        C  0.34639573  0.49576685  0.53518799    -0.13000
C133        C  0.38178336  0.99315100  0.53422715     0.00700
C134        C  0.40045948  0.99222312  0.49857971    -0.11500
C135        C  0.38316189  0.99371250  0.46239394     0.03200
C136        C  0.34703523  0.49477629  0.46333919    -0.10900
H137        H  0.33223791  0.49738888  0.56295201     0.08800
H138        H  0.42841996  0.99076560  0.49900407     0.06300
H139        H  0.33339235  0.49584953  0.43546917     0.06200
C140        C  0.00789828  0.17675316  0.49671959     0.03200
C141        C  0.00581907  0.15762239  0.46142454    -0.13000
C142        C  0.00532559  0.12151013  0.46241146     0.00700
C143        C  0.00628713  0.10434954  0.49878629    -0.11500
C144        C  0.00781619  0.12326469  0.53418692     0.03200
C145        C  0.00868678  0.15940207  0.53312043    -0.10900
H146        H  0.00410416  0.17080340  0.43327533     0.08800
H147        H  0.00530977  0.07638780  0.49957304     0.06300
H148        H  0.00947436  0.17402513  0.56054935     0.06200
C149        C  0.00420677  0.32588204  0.49610991     0.03200
C150        C  0.00622471  0.34447767  0.53178796    -0.13000
C151        C  0.00710012  0.38059144  0.53150333     0.00700
C152        C  0.00663300  0.39829015  0.49547918    -0.11500
C153        C  0.00494207  0.37992152  0.45973467     0.03200
C154        C  0.00368073  0.34378155  0.46005816    -0.10900
H155        H  0.00754221  0.33087828  0.55970388     0.08800
H156        H  0.00768164  0.42626062  0.49525351     0.06300
H157        H  0.00269291  0.32958984  0.43234530     0.06200
C158        C  0.00609283  0.39849887  0.42211547     0.42500
N159        N  0.49751639  0.42918420  0.37467891     0.01400
C160        C  0.09436773  0.03361138  0.59114560    -0.06500
H161        H  0.09508451  0.05764431  0.41311583     0.06900
C162        C  0.46787028  0.08754748  0.40705993    -0.06800
Co163      Co  0.05165979  0.45885354  0.66358693     0.74200
N164        N  0.07330326  0.01886473  0.37446397    -0.26000
Co165      Co  0.04842427  0.04917252  0.66550834     0.74100
C166        C  0.00325503  0.10174576  0.42547521     0.42600
N167        N  0.43218864  0.01084269  0.37541215     0.01000
N168        N  0.01812409  0.07182167  0.37490094     0.01100
N169        N  0.09535025  0.47740817  0.59053398    -0.46800
H170        H  0.06348172  0.41020540  0.41076850     0.06900
N171        N  0.07554195  0.48833299  0.37381798     0.01400
N172        N  0.02049626  0.07534735  0.62238107     0.01200
C173        C  0.00597630  0.10532422  0.57222657     0.42800
N174        N  0.43634135  0.47563604  0.37599853    -0.25400
C175        C  0.03868524  0.41366669  0.58841302    -0.06400
N176        N  0.48702430  0.40903730  0.40397368    -0.46600
N177        N  0.03336062  0.09340299  0.59244384    -0.46800
C178        C  0.00831485  0.39982881  0.56883825     0.42500
N179        N  0.07647809  0.48887718  0.62073797     0.01400
N180        N  0.43528972  0.47588525  0.62175460    -0.25500
N181        N  0.02423266  0.43097660  0.37251805    -0.26000
N182        N  0.42966186  0.00958785  0.62163302     0.01000
H183        H  0.41705570  0.43545886  0.58283285     0.06900
H184        H  0.43859251  0.08948930  0.58365951     0.07000
N185        N  0.07576975  0.02197951  0.62198463    -0.26000
N186        N  0.48100463  0.07018443  0.37595391    -0.25600
N187        N  0.49610618  0.42874343  0.62084862     0.01400
C188        C  0.10381961  0.99997422  0.42483706     0.42800
C189        C  0.41932117  0.46195881  0.40693218    -0.06900
N190        N  0.47834932  0.06945408  0.62185573    -0.25600
H191        H  0.44084091  0.08935665  0.41507610     0.07000
N192        N  0.09488201  0.47615018  0.40284565    -0.46800
H193        H  0.41848673  0.43492105  0.41467720     0.06900
C194        C  0.40020167  0.99243227  0.57196953     0.42600
C195        C  0.03658624  0.41287517  0.40298975    -0.06400
Co196      Co  0.46518483  0.45147905  0.66449905     0.73800
N197        N  0.41266074  0.02184588  0.40527813    -0.46600
C198        C  0.10701989  0.00252881  0.57147682     0.42900
N199        N  0.48552309  0.40863872  0.59149931    -0.46600
Co200      Co  0.45320999  0.03987777  0.66501984     0.73900
C201        C  0.46554347  0.08752713  0.59147407    -0.06900
C202        C  0.09131086  0.03080845  0.40533751    -0.06400
N203        N  0.02601320  0.43104154  0.61975947    -0.26000
N204        N  0.03074595  0.08994756  0.40482524    -0.46700
H205        H  0.09835448  0.06037721  0.58341630     0.06900
C206        C  0.41804825  0.46245602  0.59102637    -0.06900
Cl207      Cl  0.00454693  0.00346542  0.66509107    -0.49900
C208        C  0.40289523  0.99340691  0.42527866     0.42700
H209        H  0.06565688  0.41111672  0.58040196     0.06900
N210        N  0.41013508  0.02073879  0.59229589    -0.46600
C211        C  0.03240487  0.27042939  0.47852267    -0.20200
C212        C  0.00442338  0.28768841  0.49631661    -0.06800
C213        C  0.97739843  0.26836379  0.51378973     0.14100
C214        C  0.97930419  0.23218931  0.51346875    -0.20300
C215        C  0.00735676  0.21493290  0.49582808    -0.06800
C216        C  0.03429685  0.23425113  0.47817750     0.14100
C217        C  0.06558501  0.21691434  0.46020055    -0.23600
H218        H  0.05308546  0.28542391  0.46527567     0.15300
H219        H  0.45476839  0.22007243  0.47210031     0.15400
C220        C  0.44689129  0.28926251  0.46596475    -0.23600
H221        H  0.08489981  0.23603377  0.44962572     0.05600
H222        H  0.05801753  0.20086623  0.43443469     0.08800
H223        H  0.55813089  0.19874647  0.55462092     0.08800
H224        H  0.93360817  0.30231172  0.50915825     0.08800
H225        H  0.43658541  0.30712447  0.48899142     0.08800
H226        H  0.42585465  0.27130244  0.45736674     0.05600
C227        C  0.27155018  0.46802905  0.49238505    -0.20200
C228        C  0.29038183  0.49843331  0.49883876    -0.06800
C229        C  0.27096802  0.02584561  0.51151800     0.14100
C230        C  0.23474898  0.02513721  0.51039733    -0.20300
C231        C  0.21758826  0.49997247  0.49671769    -0.06800
C232        C  0.23529448  0.46841144  0.49147858     0.14100
C233        C  0.21586768  0.43511716  0.48563552    -0.23600
H234        H  0.28531775  0.44389076  0.48829570     0.15300
H235        H  0.22012082  0.04680638  0.52212157     0.15400
C236        C  0.28889526  0.05736163  0.52772091    -0.23600
H237        H  0.23362191  0.41272250  0.48267777     0.05600
H238        H  0.20016429  0.43656023  0.45834865     0.08800
H239        H  0.19855479  0.43051217  0.51144082     0.08800
H240        H  0.30654337  0.06815498  0.50485635     0.08800
H241        H  0.30392321  0.05059774  0.55437710     0.08800
H242        H  0.27017664  0.07781583  0.53639550     0.05600
C243        C  0.17919405  0.49704986  0.82989332     0.03200
C244        C  0.16106966  0.49821590  0.79405843    -0.13000
C245        C  0.12455659  0.00012593  0.79559129     0.00700
C246        C  0.10651625  0.00025794  0.83163480    -0.11500
C247        C  0.12456729  0.99916256  0.86731571     0.03200
C248        C  0.16097355  0.49981166  0.86586199    -0.10900
H249        H  0.17496423  0.49683051  0.76611482     0.08800
H250        H  0.07853978  0.00155540  0.83192472     0.06300
H251        H  0.17476838  0.49891004  0.89364686     0.06200
C252        C  0.32832128  0.49250951  0.83261145     0.03200
C253        C  0.34625726  0.49129736  0.86852978    -0.13000
C254        C  0.38216616  0.99413581  0.86840933     0.00700
C255        C  0.40020995  0.99243241  0.83234246    -0.11500
C256        C  0.38219814  0.99314554  0.79656137     0.03200
C257        C  0.34685195  0.49220064  0.79671316    -0.10900
H258        H  0.33211879  0.49121287  0.89635896     0.08800
H259        H  0.42817476  0.99099058  0.83211739     0.06300
H260        H  0.33315033  0.49323882  0.76887828     0.06200
C261        C  0.00382479  0.17736190  0.83458526     0.03200
C262        C  0.00450394  0.15959859  0.79831067    -0.13000
C263        C  0.00575961  0.12347305  0.79753237     0.00700
C264        C  0.00605575  0.10502283  0.83309685    -0.11500
C265        C  0.00503307  0.12263909  0.86941111     0.03200
C266        C  0.00396392  0.15879069  0.87013999    -0.10900
H267        H  0.00400420  0.17387724  0.77079467     0.08800
H268        H  0.00637889  0.07703590  0.83251111     0.06300
H269        H  0.00302231  0.17244440  0.89822319     0.06200
C270        C  0.00100623  0.32616933  0.83197980     0.03200
C271        C  0.00283909  0.34542063  0.86717967    -0.13000
C272        C  0.00576594  0.38143719  0.86587631     0.00700
C273        C  0.00715321  0.39825871  0.82926458    -0.11500
C274        C  0.00503894  0.37921136  0.79397273     0.03200
C275        C  0.00176410  0.34318841  0.79536933    -0.10900
H276        H  0.00235689  0.33234318  0.89548454     0.08800
H277        H  0.00965359  0.42611848  0.82823917     0.06300
H278        H  0.00067767  0.32836157  0.76810308     0.06200
C279        C  0.00689517  0.39701758  0.75578683     0.42500
N280        N  0.49596095  0.42834188  0.70716228     0.01400
C281        C  0.09264859  0.03155457  0.92449637    -0.06500
H282        H  0.09723253  0.06007119  0.74739495     0.06900
C283        C  0.46463439  0.08666122  0.73948807    -0.06800
Co284      Co  0.05144146  0.46101664  0.99693495     0.74200
N285        N  0.07506401  0.02174230  0.70842990    -0.26000
Co286      Co  0.04682756  0.04654555  0.99858680     0.74100
C287        C  0.00454498  0.10494902  0.75968698     0.42600
N288        N  0.42952764  0.00944459  0.70818295     0.01000
N289        N  0.01987266  0.07503028  0.70920872     0.01100
N290        N  0.09538168  0.47824187  0.92417588    -0.46800
H291        H  0.06435393  0.40919325  0.74514138     0.06900
N292        N  0.07616650  0.48786000  0.70729304     0.01400
N293        N  0.01839820  0.07256951  0.95583170     0.01200
C294        C  0.00339707  0.10319988  0.90643978     0.42800
N295        N  0.43532574  0.47537434  0.70842544    -0.25400
C296        C  0.03787323  0.41536736  0.92195796    -0.06400
N297        N  0.48504665  0.40835851  0.73641497    -0.46600
N298        N  0.03096869  0.09095645  0.92602812    -0.46800
C299        C  0.00730895  0.40147399  0.90273978     0.42500
N300        N  0.07636007  0.49036155  0.95386007     0.01400
N301        N  0.43403367  0.47443089  0.95615570    -0.25500
N302        N  0.02537523  0.42992484  0.70643385    -0.26000
N303        N  0.42959308  0.01151130  0.95585610     0.01000
H304        H  0.41686429  0.43366398  0.91702422     0.06900
H305        H  0.43746079  0.09088946  0.91741935     0.07000
N306        N  0.07388420  0.01959867  0.95495061    -0.26000
N307        N  0.47792760  0.06906531  0.70861239    -0.25600
N308        N  0.49506525  0.42787223  0.95490174     0.01400
C309        C  0.10566525  0.00221513  0.75843310     0.42800
C310        C  0.41851216  0.46160659  0.73942912    -0.06900
N311        N  0.47779445  0.07160750  0.95531275    -0.25600
H312        H  0.43756337  0.08854637  0.74728971     0.07000
N313        N  0.09544235  0.47583730  0.73638355    -0.46800
H314        H  0.41768741  0.43454153  0.74704277     0.06900
C315        C  0.40102386  0.99394616  0.90577743     0.42600
C316        C  0.03751825  0.41176985  0.73706147    -0.06400
Co317      Co  0.46434326  0.45056011  0.99888669     0.73800
N318        N  0.41045715  0.02064696  0.73832903    -0.46600
C319        C  0.10565850  0.00069975  0.90485160     0.42900
N320        N  0.48430382  0.40789100  0.92551943    -0.46600
Co321      Co  0.45324267  0.04207262  0.99892334     0.73900
C322        C  0.46450863  0.08924091  0.92489303    -0.06900
C323        C  0.09326890  0.03332230  0.73934450    -0.06400
N324        N  0.02550520  0.43295018  0.95334879    -0.26000
N325        N  0.03226362  0.09297320  0.73946585    -0.46700
H326        H  0.09673465  0.05840191  0.91720874     0.06900
C327        C  0.41736558  0.46067979  0.92519002    -0.06900
Cl328      Cl  0.00303232  0.00078740  0.99862358    -0.49900
C329        C  0.40107625  0.99239077  0.75887558     0.42700
H330        H  0.06477612  0.41265581  0.91371238     0.06900
N331        N  0.41036218  0.02242975  0.92615269    -0.46600
C332        C  0.03187598  0.27093826  0.84096925    -0.20200
C333        C  0.00074338  0.28807459  0.83346742    -0.06800
C334        C  0.97032125  0.26878075  0.82724632     0.14100
C335        C  0.97187374  0.23255177  0.82808147    -0.20300
C336        C  0.00313068  0.21545156  0.83517912    -0.06800
C337        C  0.03344703  0.23477542  0.84176476     0.14100
C338        C  0.06752195  0.21718886  0.84882096    -0.23600
H339        H  0.05511015  0.28597328  0.84570951     0.15300
H340        H  0.44543045  0.22127505  0.82498780     0.15400
C341        C  0.43753969  0.29099756  0.82460627    -0.23600
H342        H  0.08876599  0.23612870  0.85277831     0.05600
H343        H  0.07413968  0.20039790  0.82312468     0.08800
H344        H  0.56542157  0.19626512  0.86207593     0.08800
H345        H  0.93796658  0.30225636  0.79290447     0.08800
H346        H  0.43447154  0.30757773  0.85131243     0.08800
H347        H  0.41477105  0.27363777  0.82279236     0.05600
C348        C  0.27177996  0.46579143  0.81690917    -0.20200
C349        C  0.29014830  0.49392695  0.83245101    -0.06800
C350        C  0.27090559  0.02571682  0.84842083     0.14100
C351        C  0.23470917  0.02502694  0.84729611    -0.20300
C352        C  0.21736180  0.49514131  0.83005141    -0.06800
C353        C  0.23552288  0.46593331  0.81576063     0.14100
C354        C  0.21677628  0.43452447  0.80055125    -0.23600
H355        H  0.28592518  0.44349647  0.80600223     0.15300
H356        H  0.22005295  0.04665231  0.85908471     0.15400
C357        C  0.28882965  0.05714518  0.86488637    -0.23600
H358        H  0.23497101  0.41345990  0.79236406     0.05600
H359        H  0.20179241  0.44109753  0.77379489     0.08800
H360        H  0.19896446  0.42465043  0.82380138     0.08800
H361        H  0.30655354  0.06804367  0.84216635     0.08800
H362        H  0.30374785  0.05026975  0.89157917     0.08800
H363        H  0.27010634  0.07757566  0.87362365     0.05600
C364        C  0.17902875  0.99795183  0.16408332     0.03200
C365        C  0.16107893  0.99831350  0.12810690    -0.13000
C366        C  0.12461835  0.50565304  0.12763254     0.00700
C367        C  0.10640077  0.50653013  0.16361508    -0.11500
C368        C  0.12421154  0.50552963  0.19951947     0.03200
C369        C  0.16055213  0.99774627  0.19997156    -0.10900
H370        H  0.17527596  0.99873169  0.10032440     0.08800
H371        H  0.07842997  0.50786315  0.16367268     0.06300
H372        H  0.17432886  0.99778137  0.22779069     0.06200
C373        C  0.32812221  0.99862401  0.16702599     0.03200
C374        C  0.34623409  0.99771141  0.20288462    -0.13000
C375        C  0.38234463  0.49157447  0.20317913     0.00700
C376        C  0.40034740  0.48886816  0.16717234    -0.11500
C377        C  0.38261535  0.49113994  0.13132389     0.03200
C378        C  0.34641458  0.99783772  0.13101909    -0.10900
H379        H  0.33220564  0.99840511  0.23077725     0.08800
H380        H  0.42820297  0.48599123  0.16704932     0.06300
H381        H  0.33253324  0.99863490  0.10328953     0.06200
C382        C  0.00347879  0.67650080  0.16589379     0.03200
C383        C  0.00315161  0.65785629  0.13018989    -0.13000
C384        C  0.00177373  0.62176246  0.13052030     0.00700
C385        C  0.00083259  0.60415205  0.16665179    -0.11500
C386        C  0.00127935  0.62264775  0.20240799     0.03200
C387        C  0.00233376  0.65875328  0.20199643    -0.10900
H388        H  0.00361824  0.67145908  0.10221137     0.08800
H389        H  0.99962662  0.57619167  0.16694684     0.06300
H390        H  0.00164382  0.67301452  0.22968448     0.06200
C391        C  0.99930338  0.82533327  0.16344725     0.03200
C392        C  0.99966258  0.84347262  0.19951488    -0.13000
C393        C  0.00075966  0.87958702  0.19982943     0.00700
C394        C  0.00141702  0.89770481  0.16408849    -0.11500
C395        C  0.00110258  0.87972636  0.12805252     0.03200
C396        C  0.00034148  0.84361935  0.12771674    -0.10900
H397        H  0.99945557  0.82948041  0.22723830     0.08800
H398        H  0.00254878  0.92567462  0.16431286     0.06300
H399        H  0.00120336  0.82979489  0.09974713     0.06200
C400        C  0.00280651  0.89866177  0.09080790     0.42500
N401        N  0.49353656  0.92910734  0.04091045     0.01400
C402        C  0.09097758  0.53650252  0.25735112    -0.06500
H403        H  0.09461845  0.56394338  0.07865359     0.06900
C404        C  0.46238907  0.58628161  0.07413383    -0.06800
Co405      Co  0.04872078  0.95639864  0.33104681     0.74200
N406        N  0.07385251  0.52438143  0.04025977    -0.26000
Co407      Co  0.04479114  0.54900751  0.33230815     0.74100
C408        C  0.00046172  0.60258944  0.09310801     0.42600
N409        N  0.42948435  0.50829290  0.04282349     0.01000
N410        N  0.01627886  0.57480454  0.04130152     0.01100
N411        N  0.09323022  0.97206975  0.25769610    -0.46800
H412        H  0.06056267  0.90741134  0.07838772     0.06900
N413        N  0.07507167  0.98520933  0.04104107     0.01400
N414        N  0.01557660  0.57449701  0.28989472     0.01200
C415        C  0.99981387  0.60429709  0.24014998     0.42800
N416        N  0.43402386  0.97780826  0.04245283    -0.25400
C417        C  0.03352865  0.91104947  0.25669961    -0.06400
N418        N  0.48271964  0.90915739  0.07025361    -0.46600
N419        N  0.02764504  0.59337556  0.26025363    -0.46800
C420        C  0.00255866  0.89836666  0.23740212     0.42500
N421        N  0.07486043  0.98469794  0.28772283     0.01400
N422        N  0.43560366  0.97751320  0.28843273    -0.25500
N423        N  0.02182332  0.92986344  0.04068028    -0.26000
N424        N  0.43069927  0.50936449  0.28982594     0.01000
H425        H  0.41540821  0.93761105  0.25009496     0.06900
H426        H  0.43598986  0.58883744  0.25152680     0.07000
N427        N  0.07305607  0.52361754  0.28805760    -0.26000
N428        N  0.47577505  0.56952580  0.04267799    -0.25600
N429        N  0.49504775  0.92876338  0.28720939     0.01400
C430        C  0.10581797  0.50664222  0.09016676     0.42800
C431        C  0.41704069  0.96476072  0.07375286    -0.06900
N432        N  0.47710033  0.57078768  0.28913566    -0.25600
H433        H  0.43543989  0.58690756  0.08272972     0.07000
N434        N  0.09363596  0.97255225  0.07044576    -0.46800
H435        H  0.41560346  0.93780127  0.08173891     0.06900
C436        C  0.40139714  0.49125389  0.24051253     0.42600
C437        C  0.03372393  0.91134372  0.07105771    -0.06400
Co438      Co  0.46489076  0.95222560  0.33101555     0.73800
N439        N  0.40992826  0.51895979  0.07280200    -0.46600
C440        C  0.10499303  0.50630627  0.23707823     0.42900
N441        N  0.48375050  0.90956126  0.25744208    -0.46600
Co442      Co  0.45362867  0.54046298  0.33275676     0.73900
C443        C  0.46311115  0.58804712  0.25884244    -0.06900
C444        C  0.09179180  0.53698398  0.07089710    -0.06400
N445        N  0.02171262  0.92929550  0.28778189    -0.26000
N446        N  0.02829906  0.59273581  0.07172500    -0.46700
H447        H  0.09380720  0.56353119  0.25018037     0.06900
C448        C  0.41750706  0.96459252  0.25806980    -0.06900
Cl449      Cl  0.00292278  0.50149766  0.33119484    -0.49900
C450        C  0.40177612  0.49058481  0.09376603     0.42700
H451        H  0.06034345  0.90726517  0.24863208     0.06900
N452        N  0.41031461  0.51982298  0.26094908    -0.46600
C453        C  0.02867134  0.77051684  0.17940012    -0.20200
C454        C  0.99992181  0.78721424  0.16329422    -0.06800
C455        C  0.97243218  0.76743487  0.14786855     0.14100
C456        C  0.97443102  0.73130442  0.14898609    -0.20300
C457        C  0.00310382  0.71461655  0.16529907    -0.06800
C458        C  0.03071895  0.73439655  0.18038980     0.14100
C459        C  0.06279091  0.71756368  0.19632649    -0.23600
H460        H  0.04975861  0.78590138  0.19090896     0.15300
H461        H  0.44712815  0.72204706  0.17905347     0.15400
C462        C  0.43993399  0.79170044  0.18024164    -0.23600
H463        H  0.08246990  0.73697457  0.20502421     0.05600
H464        H  0.07441064  0.70052833  0.17329002     0.08800
H465        H  0.57074155  0.69529467  0.17313560     0.08800
H466        H  0.94721819  0.79965953  0.10488922     0.08800
H467        H  0.44338697  0.80819393  0.20687281     0.08800
H468        H  0.41740661  0.77455287  0.18561112     0.05600
C469        C  0.27212740  0.96767820  0.16841190    -0.20200
C470        C  0.28994947  0.99915456  0.16690036    -0.06800
C471        C  0.27178728  0.52813557  0.18283909     0.14100
C472        C  0.23552763  0.52850757  0.18118372    -0.20300
C473        C  0.21720385  0.99780100  0.16442099    -0.06800
C474        C  0.23590223  0.96665055  0.16714402     0.14100
C475        C  0.21755899  0.93239026  0.16842059    -0.23600
H476        H  0.28667019  0.94384053  0.17032712     0.15300
H477        H  0.22138500  0.55033063  0.19330834     0.15400
C478        C  0.29040941  0.55877876  0.20016715    -0.23600
H479        H  0.23601745  0.91052566  0.17024129     0.05600
H480        H  0.20198348  0.92897495  0.14122080     0.08800
H481        H  0.20022632  0.93140120  0.19473013     0.08800
H482        H  0.30862375  0.56954672  0.17787562     0.08800
H483        H  0.30490049  0.55105763  0.22686200     0.08800
H484        H  0.27217168  0.57957382  0.20912648     0.05600
C485        C  0.17872846  0.99724630  0.49534712     0.03200
C486        C  0.15965312  0.99742770  0.46017082    -0.13000
C487        C  0.12500800  0.50261824  0.46089396     0.00700
C488        C  0.10698944  0.50456095  0.49699832    -0.11500
C489        C  0.12496752  0.50463992  0.53284450     0.03200
C490        C  0.16126065  0.99892666  0.53192593    -0.10900
H491        H  0.17288724  0.99743263  0.43177814     0.08800
H492        H  0.07901834  0.50588451  0.49720151     0.06300
H493        H  0.17579280  0.99922012  0.55922971     0.06200
C494        C  0.32808358  0.99637324  0.49737159     0.03200
C495        C  0.34563089  0.99500661  0.53361379    -0.13000
C496        C  0.38246408  0.49238522  0.53531577     0.00700
C497        C  0.40068457  0.48991109  0.49943583    -0.11500
C498        C  0.38308452  0.49157791  0.46345332     0.03200
C499        C  0.34705732  0.99569681  0.46179088    -0.10900
H500        H  0.33118891  0.99496882  0.56123183     0.08800
H501        H  0.42859173  0.48759021  0.49951080     0.06300
H502        H  0.33372858  0.99670184  0.43371277     0.06200
C503        C  0.00343684  0.67682656  0.50013101     0.03200
C504        C  0.00198600  0.65837272  0.46425538    -0.13000
C505        C  0.00054844  0.62218078  0.46435436     0.00700
C506        C  0.00011688  0.60444794  0.50037169    -0.11500
C507        C  0.00161785  0.62269198  0.53620799     0.03200
C508        C  0.00339141  0.65880932  0.53608511    -0.10900
H509        H  0.00187203  0.67215595  0.43640469     0.08800
H510        H  0.99864911  0.57649419  0.50051803     0.06300
H511        H  0.00401036  0.67290812  0.56387692     0.06200
C512        C  0.00061678  0.82603280  0.49931985     0.03200
C513        C  0.00206324  0.84501616  0.53480813    -0.13000
C514        C  0.00228133  0.88121809  0.53402231     0.00700
C515        C  0.00149926  0.89846535  0.49768928    -0.11500
C516        C  0.00044311  0.87968004  0.46218038     0.03200
C517        C  0.99992868  0.84353126  0.46302672    -0.10900
H518        H  0.00294624  0.83164561  0.56289954     0.08800
H519        H  0.00222789  0.92643892  0.49702452     0.06300
H520        H  0.99960629  0.82901041  0.43551124     0.06200
C521        C  0.00213668  0.89784719  0.42427643     0.42500
N522        N  0.49500003  0.92817305  0.37365626     0.01400
C523        C  0.09166755  0.53575833  0.59059930    -0.06500
H524        H  0.09416110  0.56131853  0.41348918     0.06900
C525        C  0.46477520  0.58657511  0.40786978    -0.06800
Co526      Co  0.05019970  0.95953875  0.66465752     0.74200
N527        N  0.07306574  0.52232859  0.37461617    -0.26000
Co528      Co  0.04532162  0.54818086  0.66536287     0.74100
C529        C  0.99927764  0.60276585  0.42699036     0.42600
N530        N  0.43130221  0.50934956  0.37607517     0.01000
N531        N  0.01536050  0.57314118  0.37651287     0.01100
N532        N  0.09473228  0.97515025  0.59160301    -0.46800
H533        H  0.05992236  0.90690613  0.41234809     0.06900
N534        N  0.07432136  0.98479417  0.37451601     0.01400
N535        N  0.01612470  0.57342665  0.62280372     0.01200
C536        C  0.00024605  0.60394354  0.57369392     0.42800
N537        N  0.43581943  0.97694526  0.37489535    -0.25400
C538        C  0.03511192  0.91377849  0.59040608    -0.06400
N539        N  0.48356000  0.90871962  0.40311110    -0.46600
N540        N  0.02811514  0.59296286  0.59368555    -0.46800
C541        C  0.00414151  0.90111201  0.57099193     0.42500
N542        N  0.07650501  0.98789143  0.62164035     0.01400
N543        N  0.43335029  0.97568735  0.62141758    -0.25500
N544        N  0.02141857  0.92920196  0.37422279    -0.26000
N545        N  0.43047899  0.50963676  0.62236484     0.01000
H546        H  0.41398580  0.93555350  0.58280867     0.06900
H547        H  0.43737295  0.58865447  0.58381871     0.07000
N548        N  0.07388059  0.52286998  0.62141647    -0.26000
N549        N  0.47797059  0.57033293  0.37599034    -0.25600
N550        N  0.49286027  0.92711897  0.62085076     0.01400
C551        C  0.10591595  0.50390216  0.42351704     0.42800
C552        C  0.41825867  0.96362197  0.40558712    -0.06900
N553        N  0.47761254  0.57053590  0.62260348    -0.25600
H554        H  0.43790729  0.58693249  0.41681809     0.07000
N555        N  0.09234481  0.97231851  0.40442220    -0.46800
H556        H  0.41634872  0.93655700  0.41296420     0.06900
C557        C  0.40133146  0.49195432  0.57274902     0.42600
C558        C  0.03312575  0.91073554  0.40475921    -0.06400
Co559      Co  0.46248428  0.95065647  0.66438179     0.73800
N560        N  0.41122718  0.51984638  0.40568835    -0.46600
C561        C  0.10592220  0.50557480  0.57052523     0.42900
N562        N  0.48176323  0.90795152  0.59095053    -0.46600
Co563      Co  0.45334229  0.54029456  0.66574712     0.73900
C564        C  0.46432451  0.58776211  0.59187643    -0.06900
C565        C  0.09130360  0.53446821  0.40525335    -0.06400
N566        N  0.02327364  0.93255274  0.62111541    -0.26000
N567        N  0.02722268  0.59191104  0.40637770    -0.46700
H568        H  0.09419292  0.56276807  0.58319403     0.06900
C569        C  0.41577891  0.96256361  0.59075275    -0.06900
Cl570      Cl  0.00380652  0.50034695  0.66449115    -0.49900
C571        C  0.40255553  0.49130576  0.42610884     0.42700
H572        H  0.06194549  0.90949250  0.58277065     0.06900
N573        N  0.41038017  0.52039233  0.59335546    -0.46600
C574        C  0.03136542  0.77061360  0.50987903    -0.20200
C575        C  0.00076962  0.78782895  0.49999942    -0.06800
C576        C  0.97104766  0.76846868  0.49042367     0.14100
C577        C  0.97272803  0.73225625  0.49050054    -0.20300
C578        C  0.00335360  0.71503287  0.50014956    -0.06800
C579        C  0.03304077  0.73436986  0.50994116     0.14100
C580        C  0.06662363  0.71679084  0.51951425    -0.23600
H581        H  0.05410815  0.78563675  0.51707857     0.15300
H582        H  0.45151619  0.71930532  0.47728121     0.15400
C583        C  0.44275626  0.78848646  0.47234513    -0.23600
H584        H  0.08749870  0.73575228  0.52541901     0.05600
H585        H  0.07484209  0.70029157  0.49417085     0.08800
H586        H  0.56066896  0.69816865  0.54835837     0.08800
H587        H  0.94045010  0.80206690  0.45405214     0.08800
H588        H  0.43413939  0.80597337  0.49662346     0.08800
H589        H  0.42125469  0.77047391  0.46558233     0.05600
C590        C  0.27212824  0.96939138  0.47967983    -0.20200
C591        C  0.28985557  0.99741068  0.49644186    -0.06800
C592        C  0.27270532  0.52997685  0.50437381     0.14100
C593        C  0.23641792  0.53039773  0.50327213    -0.20300
C594        C  0.21698037  0.99690690  0.49418873    -0.06800
C595        C  0.23588381  0.96870410  0.47846441     0.14100
C596        C  0.21801204  0.93732584  0.46179336    -0.23600
H597        H  0.28678468  0.94771343  0.46802784     0.15300
H598        H  0.22264223  0.55451243  0.50748932     0.15400
C599        C  0.29218917  0.56311774  0.51103843    -0.23600
H600        H  0.23677072  0.91698503  0.45287759     0.05600
H601        H  0.20307497  0.94433312  0.43515806     0.08800
H602        H  0.20032043  0.92625602  0.48443486     0.08800
H603        H  0.30968653  0.56806524  0.48548436     0.08800
H604        H  0.30771991  0.56118678  0.53841904     0.08800
H605        H  0.27447372  0.58551122  0.51432578     0.05600
C606        C  0.17888823  0.99753582  0.83089726     0.03200
C607        C  0.16067512  0.99901040  0.79520155    -0.13000
C608        C  0.12509994  0.50225389  0.79427343     0.00700
C609        C  0.10719973  0.50547456  0.83025783    -0.11500
C610        C  0.12507374  0.50401381  0.86603730     0.03200
C611        C  0.16068517  0.99786067  0.86698212    -0.10900
H612        H  0.17457218  0.99976820  0.76723357     0.08800
H613        H  0.07937442  0.50864701  0.83042624     0.06300
H614        H  0.17461416  0.99724853  0.89468947     0.06200
C615        C  0.32787926  0.99656772  0.83291149     0.03200
C616        C  0.34606081  0.99585827  0.86867889    -0.13000
C617        C  0.38238768  0.48999496  0.86860070     0.00700
C618        C  0.40072699  0.48940801  0.83268064    -0.11500
C619        C  0.38300777  0.49072397  0.79671356     0.03200
C620        C  0.34611855  0.99519530  0.79687304    -0.10900
H621        H  0.33214991  0.99612980  0.89665054     0.08800
H622        H  0.42871268  0.48847778  0.83272850     0.06300
H623        H  0.33222513  0.99569822  0.76913667     0.06200
C624        C  0.00047872  0.67750329  0.82983631     0.03200
C625        C  0.00012934  0.65806884  0.79466237    -0.13000
C626        C  0.00030948  0.62193704  0.79607755     0.00700
C627        C  0.00087673  0.60512089  0.83263205    -0.11500
C628        C  0.00119516  0.62431892  0.86783977     0.03200
C629        C  0.00087224  0.66048287  0.86645505    -0.10900
H630        H  0.99931721  0.67103783  0.76631622     0.08800
H631        H  0.00074386  0.57714698  0.83369160     0.06300
H632        H  0.00073879  0.67534764  0.89373336     0.06200
C633        C  0.99600892  0.82658682  0.82919575     0.03200
C634        C  0.99660297  0.84443206  0.86549071    -0.13000
C635        C  0.99930000  0.88051085  0.86625323     0.00700
C636        C  0.00116003  0.89886069  0.83066577    -0.11500
C637        C  0.00030801  0.88126938  0.79435182     0.03200
C638        C  0.99790130  0.84516751  0.79364830    -0.10900
H639        H  0.99595450  0.83020145  0.89304169     0.08800
H640        H  0.00349921  0.92675220  0.83123203     0.06300
H641        H  0.99788060  0.83151560  0.76555284     0.06200
C642        C  0.00280994  0.90062191  0.75725462     0.42500
N643        N  0.49257683  0.92685771  0.70732695     0.01400
C644        C  0.09173487  0.53659015  0.92262568    -0.06500
H645        H  0.09411970  0.56103840  0.74690825     0.06900
C646        C  0.46368078  0.58656529  0.74052944    -0.06800
Co647      Co  0.04887618  0.95708701  0.99754726     0.74200
N648        N  0.07349591  0.52184108  0.70794896    -0.26000
Co649      Co  0.04564193  0.55041459  0.99739840     0.74100
C650        C  0.99929941  0.60167245  0.75946000     0.42600
N651        N  0.43053377  0.50912715  0.70883538     0.01000
N652        N  0.01564254  0.57217146  0.70918281     0.01100
N653        N  0.09345294  0.97305222  0.92456649    -0.46800
H654        H  0.06078347  0.90936785  0.74595034     0.06900
N655        N  0.07584045  0.98765533  0.70819966     0.01400
N656        N  0.01636368  0.57551119  0.95467275     0.01200
C657        C  0.00021132  0.60638859  0.90589715     0.42800
N658        N  0.43328251  0.97555560  0.70801407    -0.25400
C659        C  0.03282649  0.91185739  0.92295206    -0.06400
N660        N  0.48121745  0.90742286  0.73686141    -0.46600
N661        N  0.02821773  0.59489671  0.92532109    -0.46800
C662        C  0.00163274  0.89900368  0.90411193     0.42500
N663        N  0.07480557  0.98553141  0.95440559     0.01400
N664        N  0.43346170  0.97762884  0.95583990    -0.25500
N665        N  0.02269502  0.93226586  0.70766883    -0.26000
N666        N  0.42901265  0.50816174  0.95638008     0.01000
H667        H  0.41490223  0.93722095  0.91710214     0.06900
H668        H  0.43427882  0.58768004  0.91782638     0.07000
N669        N  0.07384273  0.52436274  0.95370909    -0.26000
N670        N  0.47739749  0.56983615  0.70931887    -0.25600
N671        N  0.49281601  0.92916127  0.95458390     0.01400
C672        C  0.10613378  0.50367558  0.75702200     0.42800
C673        C  0.41618953  0.96245917  0.73919892    -0.06900
N674        N  0.47517022  0.56970800  0.95581514    -0.25600
H675        H  0.43661034  0.58743114  0.74856318     0.07000
N676        N  0.09381940  0.97482656  0.73790360    -0.46800
H677        H  0.41465325  0.93548433  0.74708921     0.06900
C678        C  0.40100025  0.48997008  0.90616747     0.42600
C679        C  0.03406927  0.91350112  0.73819399    -0.06400
Co680      Co  0.46291117  0.95282203  0.99850619     0.73800
N681        N  0.41092848  0.51957524  0.73892089    -0.46600
C682        C  0.10608830  0.50595461  0.90355991     0.42900
N683        N  0.48139678  0.90942013  0.92534538    -0.46600
Co684      Co  0.45166154  0.53940458  0.99940345     0.73900
C685        C  0.46135106  0.58690780  0.92537188    -0.06900
C686        C  0.09144684  0.53416140  0.73870441    -0.06400
N687        N  0.02138515  0.93016905  0.95421595    -0.26000
N688        N  0.02735807  0.59107138  0.73897171    -0.46700
H689        H  0.09446400  0.56344233  0.91459414     0.06900
C690        C  0.41633192  0.96425526  0.92503090    -0.06900
Cl691      Cl  0.00384391  0.50280566  0.99737948    -0.49900
C692        C  0.40231135  0.49091993  0.75922030     0.42700
H693        H  0.05955663  0.90799378  0.91456060     0.06900
N694        N  0.40942127  0.51859728  0.92677475    -0.46600
C695        C  0.02624254  0.77132725  0.81597948    -0.20200
C696        C  0.99607795  0.78838200  0.82843849    -0.06800
C697        C  0.96702587  0.76887121  0.84040215     0.14100
C698        C  0.96911466  0.73266290  0.84040565    -0.20300
C699        C  0.99945194  0.71564602  0.82843811    -0.06800
C700        C  0.02831837  0.73514841  0.81592723     0.14100
C701        C  0.06158153  0.71786765  0.80359790    -0.23600
H702        H  0.04844281  0.78646962  0.80685308     0.15300
H703        H  0.44733152  0.72028876  0.85340100     0.15400
C704        C  0.43878523  0.78966668  0.85583108    -0.23600
H705        H  0.08187040  0.73700652  0.79586350     0.05600
H706        H  0.05723849  0.70129307  0.77722703     0.08800
H707        H  0.57022508  0.69573350  0.83255950     0.08800
H708        H  0.92432070  0.80245078  0.82770485     0.08800
H709        H  0.44385706  0.80595045  0.88225660     0.08800
H710        H  0.41710502  0.77198817  0.86318562     0.05600
C711        C  0.27201070  0.96933565  0.81627958    -0.20200
C712        C  0.28972518  0.99739206  0.83292673    -0.06800
C713        C  0.27195556  0.52301796  0.84695518     0.14100
C714        C  0.23576593  0.52321368  0.84563572    -0.20300
C715        C  0.21702007  0.99692806  0.83072988    -0.06800
C716        C  0.23582978  0.96868404  0.81508510     0.14100
C717        C  0.21787274  0.93740453  0.79829969    -0.23600
H718        H  0.28663928  0.94769284  0.80448673     0.15300
H719        H  0.22166252  0.54554000  0.85653976     0.15400
C720        C  0.29061480  0.55427634  0.86274277    -0.23600
H721        H  0.23657415  0.91706060  0.78923295     0.05600
H722        H  0.20286678  0.94457009  0.77176371     0.08800
H723        H  0.20020515  0.92629397  0.82094017     0.08800
H724        H  0.30860169  0.56437557  0.83980192     0.08800
H725        H  0.30538265  0.54742808  0.88956876     0.08800
H726        H  0.27239020  0.57527942  0.87105147     0.05600
C727        C  0.67821102  0.50909908  0.16188709     0.03200
C728        C  0.65980198  0.51054956  0.12625520    -0.13000
C729        C  0.62363858  0.00968765  0.12685894     0.00700
C730        C  0.60576206  0.00955056  0.16306784    -0.11500
C731        C  0.62401576  0.00868710  0.19867410     0.03200
C732        C  0.66003172  0.51020213  0.19805492    -0.10900
H733        H  0.67351565  0.51049404  0.09816914     0.08800
H734        H  0.57776366  0.01000927  0.16353373     0.06300
H735        H  0.67398054  0.50903686  0.22571963     0.06200
C736        C  0.82777057  0.50550900  0.16491972     0.03200
C737        C  0.84597281  0.50401394  0.20074848    -0.13000
C738        C  0.88132025  0.00183172  0.20211600     0.00700
C739        C  0.89956788  0.00105202  0.16621360    -0.11500
C740        C  0.88181560  0.00261906  0.13037218     0.03200
C741        C  0.84613993  0.50393437  0.12891325    -0.10900
H742        H  0.83205621  0.50405821  0.22870300     0.08800
H743        H  0.92750945  0.99915601  0.16616588     0.06300
H744        H  0.83235630  0.50485923  0.10112364     0.06200
C745        C  0.50367856  0.17698027  0.16639149     0.03200
C746        C  0.50108772  0.15886992  0.13036860    -0.13000
C747        C  0.49723835  0.12287551  0.13007034     0.00700
C748        C  0.49590454  0.10484597  0.16590461    -0.11500
C749        C  0.49890832  0.12261249  0.20195068     0.03200
C750        C  0.50259268  0.15861677  0.20216609    -0.10900
H751        H  0.50200951  0.17280430  0.10262382     0.08800
H752        H  0.49313644  0.07699220  0.16572046     0.06300
H753        H  0.50388922  0.17235711  0.23014106     0.06200
C754        C  0.50989197  0.32645916  0.16461234     0.03200
C755        C  0.51140787  0.34487876  0.20051106    -0.13000
C756        C  0.51454765  0.38094869  0.20050659     0.00700
C757        C  0.51627630  0.39872334  0.16451317    -0.11500
C758        C  0.51430375  0.38064061  0.12857502     0.03200
C759        C  0.51134185  0.34456573  0.12866909    -0.10900
H760        H  0.51010440  0.33114934  0.22837359     0.08800
H761        H  0.51833528  0.42663816  0.16448139     0.06300
H762        H  0.51055228  0.33059532  0.10081284     0.06200
C763        C  0.51424923  0.39958333  0.09104768     0.42500
N764        N  0.99122365  0.43027148  0.04026955     0.01400
C765        C  0.59081424  0.03877575  0.25678348    -0.06500
H766        H  0.59074201  0.06702417  0.07871023     0.06900
C767        C  0.97318780  0.08997244  0.07401663    -0.06800
Co768      Co  0.55494723  0.46436897  0.33078628     0.74200
N769        N  0.57171818  0.02682347  0.03997353    -0.26000
Co770      Co  0.54511568  0.05033155  0.33199355     0.74100
C771        C  0.49579932  0.10395466  0.09236756     0.42600
N772        N  0.93137211  0.01606466  0.04300343     0.01000
N773        N  0.51225882  0.07527684  0.04134167     0.01100
N774        N  0.59679618  0.48478688  0.25718611    -0.46800
H775        H  0.57050665  0.41571711  0.07899458     0.06900
N776        N  0.57570801  0.49453731  0.04006599     0.01400
N777        N  0.51498612  0.07443445  0.28924456     0.01200
C778        C  0.49810298  0.10349685  0.23932288     0.42800
N779        N  0.93365300  0.48117920  0.04088256    -0.25400
C780        C  0.54438289  0.41697967  0.25658314    -0.06400
N781        N  0.97922274  0.41098078  0.06961888    -0.46600
N782        N  0.52629299  0.09392480  0.25971233    -0.46800
C783        C  0.51493885  0.40022679  0.23800576     0.42500
N784        N  0.57716581  0.49540081  0.28714898     0.01400
N785        N  0.93302232  0.48079270  0.28744738    -0.25500
N786        N  0.52947479  0.43312357  0.04087523    -0.26000
N787        N  0.93127767  0.01527123  0.28842489     0.01000
H788        H  0.91262194  0.44210009  0.24764834     0.06900
H789        H  0.94639062  0.09419370  0.25039534     0.07000
N790        N  0.57402677  0.02552149  0.28805508    -0.26000
N791        N  0.98466032  0.07145303  0.04294740    -0.25600
N792        N  0.99047416  0.42974020  0.28605160     0.01400
C793        C  0.60450169  0.01018603  0.08966699     0.42800
C794        C  0.91560124  0.46881045  0.07177051    -0.06900
N795        N  0.98455139  0.07105511  0.28836280    -0.25600
H796        H  0.94644989  0.09399809  0.08227321     0.07000
N797        N  0.59582123  0.48414803  0.06921970    -0.46800
H798        H  0.91284970  0.44191689  0.07960761     0.06900
C799        C  0.90012579  0.00011528  0.23941180     0.42600
C800        C  0.54341655  0.41630132  0.07151268    -0.06400
Co801      Co  0.96103491  0.45398059  0.32999970     0.73800
N802        N  0.91293775  0.02856906  0.07300798    -0.46600
C803        C  0.60542426  0.00894169  0.23650565     0.42900
N804        N  0.97866432  0.41079239  0.25631378    -0.46600
Co805      Co  0.95711134  0.04378449  0.33159854     0.73900
C806        C  0.97312555  0.09005113  0.25805720    -0.06900
C807        C  0.58912045  0.04001917  0.07070080    -0.06400
N808        N  0.53085438  0.43406053  0.28771104    -0.26000
N809        N  0.52377379  0.09454364  0.07094119    -0.46700
H810        H  0.59232134  0.06579503  0.24909134     0.06900
C811        C  0.91529395  0.46887786  0.25627122    -0.06900
Cl812      Cl  0.50499787  0.00125378  0.33150373    -0.49900
C813        C  0.90095793  0.00095609  0.09296450     0.42700
H814        H  0.57138350  0.41621474  0.24822127     0.06900
N815        N  0.91255065  0.02773586  0.25911935    -0.46600
C816        C  0.53544232  0.26936638  0.18035454    -0.20200
C817        C  0.50775338  0.28820417  0.16481113    -0.06800
C818        C  0.47866666  0.27034530  0.15011469     0.14100
C819        C  0.47815626  0.23409278  0.15102890    -0.20300
C820        C  0.50586440  0.21523780  0.16648170    -0.06800
C821        C  0.53498394  0.23308821  0.18113783     0.14100
C822        C  0.56610545  0.21401776  0.19622650    -0.23600
H823        H  0.55774399  0.28317718  0.19144543     0.15300
H824        H  0.95894952  0.21631576  0.13943862     0.15400
C825        C  0.94615079  0.28466523  0.13335374    -0.23600
H826        H  0.58722081  0.23199521  0.20452039     0.05600
H827        H  0.57612538  0.19633586  0.17285319     0.08800
H828        H  0.06381898  0.20256079  0.22125709     0.08800
H829        H  0.45483699  0.30437792  0.10792369     0.08800
H830        H  0.93504308  0.30188755  0.15653698     0.08800
H831        H  0.92625016  0.26525035  0.12535700     0.05600
C832        C  0.77134120  0.48002661  0.14620745    -0.20200
C833        C  0.78946172  0.50695824  0.16471297    -0.06800
C834        C  0.77033634  0.03499200  0.18190221     0.14100
C835        C  0.73415365  0.03486329  0.17981216    -0.20300
C836        C  0.71650410  0.50780114  0.16169876    -0.06800
C837        C  0.73510413  0.47999338  0.14459562     0.14100
C838        C  0.71694414  0.44962942  0.12597123    -0.23600
H839        H  0.78570760  0.45869265  0.13328986     0.15300
H840        H  0.71957224  0.05632626  0.19210982     0.15400
C841        C  0.78835956  0.06561847  0.20010975    -0.23600
H842        H  0.73547382  0.42928655  0.11643619     0.05600
H843        H  0.70261426  0.45787463  0.09937961     0.08800
H844        H  0.69869190  0.43803054  0.14765557     0.08800
H845        H  0.80667960  0.07696229  0.17831889     0.08800
H846        H  0.80264548  0.05766474  0.22686573     0.08800
H847        H  0.76975684  0.08603711  0.20922393     0.05600
C848        C  0.67898296  0.50951849  0.49714311     0.03200
C849        C  0.66116854  0.51134414  0.46114984    -0.13000
C850        C  0.62570155  0.00660942  0.46188594     0.00700
C851        C  0.60693780  0.00793962  0.49749487    -0.11500
C852        C  0.62413101  0.00662544  0.53378420     0.03200
C853        C  0.66035914  0.51037977  0.53297602    -0.10900
H854        H  0.67536221  0.51084238  0.43336336     0.08800
H855        H  0.57899222  0.00960839  0.49696367     0.06300
H856        H  0.67393589  0.50873275  0.56085050     0.06200
C857        C  0.82808649  0.50219013  0.49964171     0.03200
C858        C  0.84657948  0.50095861  0.53521591    -0.13000
C859        C  0.88311196  0.00568689  0.53511033     0.00700
C860        C  0.90069219  0.00445807  0.49871209    -0.11500
C861        C  0.88219872  0.00318879  0.46325590     0.03200
C862        C  0.84602060  0.50042008  0.46340815    -0.10900
H863        H  0.83291839  0.50166353  0.56334083     0.08800
H864        H  0.92868867  0.00394578  0.49800220     0.06300
H865        H  0.83193632  0.50138913  0.43582165     0.06200
C866        C  0.50257796  0.17680938  0.49931173     0.03200
C867        C  0.50164920  0.15826964  0.46348384    -0.13000
C868        C  0.49832115  0.12223531  0.46357669     0.00700
C869        C  0.49569814  0.10457080  0.49955415    -0.11500
C870        C  0.49699572  0.12269454  0.53549371     0.03200
C871        C  0.50037182  0.15879740  0.53534656    -0.10900
H872        H  0.50341906  0.17190012  0.43558481     0.08800
H873        H  0.49323129  0.07668736  0.49958924     0.06300
H874        H  0.50080885  0.17286134  0.56315422     0.06200
C875        C  0.50889303  0.32639161  0.49662854     0.03200
C876        C  0.50997403  0.34452296  0.53276384    -0.13000
C877        C  0.51384257  0.38053197  0.53322715     0.00700
C878        C  0.51675738  0.39853805  0.49751318    -0.11500
C879        C  0.51505177  0.38082606  0.46134771     0.03200
C880        C  0.51123794  0.34479785  0.46092380    -0.10900
H881        H  0.50797277  0.33059463  0.56044658     0.08800
H882        H  0.51940419  0.42640608  0.49785508     0.06300
H883        H  0.51057892  0.33109659  0.43288829     0.06200
C884        C  0.51554228  0.40024753  0.42415875     0.42500
N885        N  0.99020633  0.42851818  0.37258231     0.01400
C886        C  0.58888409  0.03726419  0.59023334    -0.06500
H887        H  0.59364487  0.06465625  0.41386291     0.06900
C888        C  0.97224067  0.08930217  0.40599727    -0.06800
Co889      Co  0.55401050  0.46332515  0.66401106     0.74200
N890        N  0.57428713  0.02492809  0.37470557    -0.26000
Co891      Co  0.54224981  0.04916924  0.66491728     0.74100
C892        C  0.49776098  0.10291995  0.42615343     0.42600
N893        N  0.93103854  0.01554984  0.37499175     0.01000
N894        N  0.51491532  0.07385909  0.37575960     0.01100
N895        N  0.59631619  0.48423954  0.59064807    -0.46800
H896        H  0.57196091  0.41636103  0.41284689     0.06900
N897        N  0.57777736  0.49569582  0.37363071     0.01400
N898        N  0.51224064  0.07324154  0.62207970     0.01200
C899        C  0.49562895  0.10363516  0.57299560     0.42800
N900        N  0.93270904  0.47934629  0.37407210    -0.25400
C901        C  0.54349217  0.41627725  0.58957327    -0.06400
N902        N  0.97819450  0.40942338  0.40209726    -0.46600
N903        N  0.52367773  0.09334754  0.59317055    -0.46800
C904        C  0.51408286  0.39958231  0.57086682     0.42500
N905        N  0.57675126  0.49460432  0.62081299     0.01400
N906        N  0.93423594  0.47882682  0.62090643    -0.25500
N907        N  0.53124763  0.43427546  0.37455217    -0.26000
N908        N  0.93293734  0.01921914  0.62194884     0.01000
H909        H  0.91376522  0.43957058  0.58191525     0.06900
H910        H  0.94812973  0.09643055  0.58384939     0.07000
N911        N  0.57146978  0.02419774  0.62120205    -0.26000
N912        N  0.98403942  0.07096680  0.37493193    -0.25600
N913        N  0.99200406  0.42851150  0.61978764     0.01400
C914        C  0.60737417  0.00765870  0.42404140     0.42800
C915        C  0.91479262  0.46644139  0.40475070    -0.06900
N916        N  0.98639464  0.07443472  0.62250434    -0.25600
H917        H  0.94542823  0.09324089  0.41397122     0.07000
N918        N  0.59770325  0.48537831  0.40300464    -0.46800
H919        H  0.91202399  0.43941584  0.41196577     0.06900
C920        C  0.90261854  0.00426829  0.57208568     0.42600
C921        C  0.54491554  0.41717482  0.40518238    -0.06400
Co922      Co  0.96226546  0.45252630  0.66360064     0.73800
N923        N  0.91280335  0.02835720  0.40499590    -0.46600
C924        C  0.60432643  0.00732583  0.57086188     0.42900
N925        N  0.98028639  0.41006137  0.58963881    -0.46600
Co926      Co  0.95879762  0.04733131  0.66555186     0.73900
C927        C  0.97487586  0.09268331  0.59170875    -0.06900
C928        C  0.59185170  0.03772661  0.40556319    -0.06400
N929        N  0.52987817  0.43351743  0.62051956    -0.26000
N930        N  0.52608230  0.09325524  0.40544656    -0.46700
H931        H  0.59062157  0.06425104  0.58244688     0.06900
C932        C  0.91643118  0.46645970  0.59006827    -0.06900
Cl933      Cl  0.50237890  0.99992869  0.66462526    -0.49900
C934        C  0.90072570  0.00100739  0.42536012     0.42700
H935        H  0.57055538  0.41522723  0.58152926     0.06900
N936        N  0.91454967  0.03183336  0.59237020    -0.46600
C937        C  0.53453539  0.26926408  0.51188776    -0.20200
C938        C  0.50679324  0.28809772  0.49646492    -0.06800
C939        C  0.47771088  0.27019418  0.48180589     0.14100
C940        C  0.47710010  0.23390660  0.48307327    -0.20300
C941        C  0.50475005  0.21509625  0.49879118    -0.06800
C942        C  0.53400268  0.23299267  0.51294737     0.14100
C943        C  0.56511788  0.21390061  0.52796982    -0.23600
H944        H  0.55690010  0.28308166  0.52280340     0.15300
H945        H  0.95864680  0.21719292  0.52676097     0.15400
C946        C  0.94603824  0.28568754  0.53162274    -0.23600
H947        H  0.58626659  0.23185009  0.53622966     0.05600
H948        H  0.57507235  0.19620833  0.50456820     0.08800
H949        H  0.07815547  0.20036815  0.48263745     0.08800
H950        H  0.45434587  0.30422239  0.43933132     0.08800
H951        H  0.95346094  0.30164880  0.55751138     0.08800
H952        H  0.92664492  0.26655691  0.54197853     0.05600
C953        C  0.77097061  0.47670979  0.48438696    -0.20200
C954        C  0.78992308  0.50440755  0.50000141    -0.06800
C955        C  0.77136783  0.03582162  0.50137552     0.14100
C956        C  0.73513245  0.03482764  0.50066888    -0.20300
C957        C  0.71714083  0.50712068  0.49751823    -0.06800
C958        C  0.73475753  0.47763805  0.48308465     0.14100
C959        C  0.71543954  0.44677448  0.46734805    -0.23600
H960        H  0.78464668  0.45416572  0.47336099     0.15300
H961        H  0.72054858  0.05871262  0.50052509     0.15400
C962        C  0.78969226  0.07010714  0.50203322    -0.23600
H963        H  0.73322012  0.42539774  0.45902955     0.05600
H964        H  0.70077325  0.45392878  0.44055371     0.08800
H965        H  0.69727505  0.43706348  0.49033028     0.08800
H966        H  0.80667071  0.07239705  0.47553092     0.08800
H967        H  0.80563812  0.07217791  0.52911471     0.08800
H968        H  0.77120762  0.09202496  0.50199155     0.05600
C969        C  0.67843640  0.50637192  0.83106943     0.03200
C970        C  0.66065651  0.50769159  0.79498995    -0.13000
C971        C  0.62443799  0.00729346  0.79390063     0.00700
C972        C  0.60612123  0.00922862  0.82975193    -0.11500
C973        C  0.62376559  0.00911578  0.86575766     0.03200
C974        C  0.65972483  0.50841149  0.86682469    -0.10900
H975        H  0.67485599  0.50651395  0.76723386     0.08800
H976        H  0.57814361  0.01045798  0.82963747     0.06300
H977        H  0.67319198  0.50713097  0.89479514     0.06200
C978        C  0.82795627  0.50170370  0.83245842     0.03200
C979        C  0.84660271  0.50155942  0.86799270    -0.13000
C980        C  0.88175639  0.00410713  0.86879622     0.00700
C981        C  0.90034440  0.00416011  0.83298697    -0.11500
C982        C  0.88290760  0.00542181  0.79679073     0.03200
C983        C  0.84588095  0.49937422  0.79619716    -0.10900
H984        H  0.83300629  0.50246798  0.89614806     0.08800
H985        H  0.92831388  0.00291912  0.83328138     0.06300
H986        H  0.83172624  0.49948054  0.76863467     0.06200
C987        C  0.49828879  0.17717525  0.83054238     0.03200
C988        C  0.49717818  0.15825375  0.79499449    -0.13000
C989        C  0.49484433  0.12211149  0.79573671     0.00700
C990        C  0.49336650  0.10489242  0.83210501    -0.11500
C991        C  0.49490750  0.12355512  0.86769678     0.03200
C992        C  0.49748721  0.15966776  0.86686547    -0.10900
H993        H  0.49817317  0.17162566  0.76689251     0.08800
H994        H  0.49158476  0.07696532  0.83270717     0.06300
H995        H  0.49867427  0.17414871  0.89436627     0.06200
C996        C  0.50531128  0.32629088  0.83016133     0.03200
C997        C  0.50711979  0.34443819  0.86618611    -0.13000
C998        C  0.51193123  0.38034390  0.86642516     0.00700
C999        C  0.51506877  0.39810612  0.83050553    -0.11500
C1000       C  0.51232542  0.38029996  0.79442779     0.03200
C1001       C  0.50733037  0.34442459  0.79432158    -0.10900
H1002       H  0.50512955  0.33059041  0.89392126     0.08800
H1003       H  0.51855550  0.42587830  0.83062933     0.06300
H1004       H  0.50549380  0.33056968  0.76645397     0.06200
C1005       C  0.51329763  0.39941828  0.75699853     0.42500
N1006       N  0.99136796  0.42728484  0.70622880     0.01400
C1007       C  0.58865819  0.03989705  0.92239092    -0.06500
H1008       H  0.59141096  0.06441674  0.74567220     0.06900
C1009       C  0.97375511  0.09257991  0.73983021    -0.06800
Co1010     Co  0.55292519  0.46332755  0.99713045     0.74200
N1011       N  0.57150612  0.02412198  0.70771489    -0.26000
Co1012     Co  0.54222679  0.05173305  0.99734879     0.74100
C1013       C  0.49443332  0.10220127  0.75864799     0.42600
N1014       N  0.93255808  0.01895576  0.70890533     0.01000
N1015       N  0.51183670  0.07276166  0.70858328     0.01100
N1016       N  0.59532076  0.48398645  0.92422646    -0.46800
H1017       H  0.56992389  0.41510231  0.74629565     0.06900
N1018       N  0.57695133  0.49403782  0.70736017     0.01400
N1019       N  0.51167259  0.07552544  0.95488421     0.01200
C1020       C  0.49427023  0.10514263  0.90559130     0.42800
N1021       N  0.93353456  0.47798068  0.70743509    -0.25400
C1022       C  0.54210310  0.41640941  0.92241699    -0.06400
N1023       N  0.97920299  0.40799752  0.73548034    -0.46600
N1024       N  0.52265616  0.09527388  0.92542747    -0.46800
C1025       C  0.51260921  0.39950018  0.90406086     0.42500
N1026       N  0.57516914  0.49449248  0.95376530     0.01400
N1027       N  0.93407535  0.48124430  0.95431605    -0.25500
N1028       N  0.52973110  0.43316036  0.70738025    -0.26000
N1029       N  0.93095580  0.01647578  0.95634947     0.01000
H1030       H  0.91358428  0.44159744  0.91587143     0.06900
H1031       H  0.94561698  0.09466412  0.91903188     0.07000
N1032       N  0.57121253  0.02682238  0.95336365    -0.26000
N1033       N  0.98577846  0.07426969  0.70892140    -0.25600
N1034       N  0.99148489  0.43052647  0.95367867     0.01400
C1035       C  0.60552885  0.00762458  0.75646061     0.42800
C1036       C  0.91532726  0.46530921  0.73806830    -0.06900
N1037       N  0.98429843  0.07181407  0.95650678    -0.25600
H1038       H  0.94688072  0.09649205  0.74753553     0.07000
N1039       N  0.59699102  0.48329573  0.73643465    -0.46800
H1040       H  0.91258491  0.43834188  0.74557622     0.06900
C1041       C  0.90024624  0.00195443  0.90652534     0.42600
C1042       C  0.54297343  0.41602669  0.73823777    -0.06400
Co1043     Co  0.96207740  0.45520088  0.99733543     0.73800
N1044       N  0.91432078  0.03146196  0.73914579    -0.46600
C1045       C  0.60424682  0.00996550  0.90308589     0.42900
N1046       N  0.97949285  0.41186777  0.92382288    -0.46600
Co1047     Co  0.95721575  0.04453209  0.99973939     0.73900
C1048       C  0.97245234  0.09054871  0.92625128    -0.06900
C1049       C  0.58948114  0.03736476  0.73796408    -0.06400
N1050       N  0.52875564  0.43314421  0.95391776    -0.26000
N1051       N  0.52284306  0.09237969  0.73817257    -0.46700
H1052       H  0.59042930  0.06689215  0.91464468     0.06900
C1053       C  0.91631075  0.46857149  0.92360678    -0.06900
Cl1054     Cl  0.50252800  0.00230423  0.99785735    -0.49900
C1055       C  0.90248113  0.00387953  0.75938576     0.42700
H1056       H  0.56902727  0.41591369  0.91370343     0.06900
N1057       N  0.91252955  0.02928599  0.92693312    -0.46600
C1058       C  0.53329562  0.26880586  0.83258544    -0.20200
C1059       C  0.50280450  0.28815613  0.82995684    -0.06800
C1060       C  0.47075890  0.27097355  0.82711121     0.14100
C1061       C  0.46994266  0.23466460  0.82698927    -0.20300
C1062       C  0.50046148  0.21532943  0.82982602    -0.06800
C1063       C  0.53248817  0.23254668  0.83252553     0.14100
C1064       C  0.56575218  0.21259734  0.83516023    -0.23600
H1065       H  0.55781473  0.28218013  0.83465482     0.15300
H1066       H  0.94870228  0.21747739  0.82313635     0.15400
C1067       C  0.93630950  0.28644280  0.82016724    -0.23600
H1068       H  0.58849901  0.22999902  0.83679369     0.05600
H1069       H  0.56882786  0.19584946  0.80859359     0.08800
H1070       H  0.06584206  0.20119393  0.87594254     0.08800
H1071       H  0.43794632  0.30751803  0.79784078     0.08800
H1072       H  0.92985907  0.30343224  0.84574615     0.08800
H1073       H  0.91498970  0.26754364  0.81647855     0.05600
C1074       C  0.77109005  0.47503177  0.81786674    -0.20200
C1075       C  0.78966697  0.50320358  0.83302719    -0.06800
C1076       C  0.77098928  0.03798881  0.83103177     0.14100
C1077       C  0.73470128  0.03713033  0.83040675    -0.20300
C1078       C  0.71668629  0.50435359  0.83155088    -0.06800
C1079       C  0.73480714  0.47515966  0.81712050     0.14100
C1080       C  0.71598686  0.44373902  0.80206136    -0.23600
H1081       H  0.78511513  0.45270692  0.80683364     0.15300
H1082       H  0.72021479  0.06106768  0.82996509     0.15400
C1083       C  0.78944626  0.07219903  0.83116088    -0.23600
H1084       H  0.73414169  0.42268894  0.79370433     0.05600
H1085       H  0.70081737  0.45029783  0.77544002     0.08800
H1086       H  0.69834083  0.43384396  0.82546375     0.08800
H1087       H  0.80644953  0.07409766  0.80463864     0.08800
H1088       H  0.80538585  0.07452927  0.85822326     0.08800
H1089       H  0.77104655  0.09418218  0.83073918     0.05600
C1090       C  0.67820683  0.00814554  0.16194991     0.03200
C1091       C  0.65980888  0.00934162  0.12631896    -0.13000
C1092       C  0.62369084  0.51279892  0.12679300     0.00700
C1093       C  0.60584148  0.51441660  0.16295959    -0.11500
C1094       C  0.62394542  0.51291067  0.19861064     0.03200
C1095       C  0.66012445  0.00797682  0.19809262    -0.10900
H1096       H  0.67357561  0.01022815  0.09828016     0.08800
H1097       H  0.57788991  0.51613370  0.16335544     0.06300
H1098       H  0.67416584  0.00724872  0.22572381     0.06200
C1099       C  0.82725193  0.00566487  0.16628162     0.03200
C1100       C  0.84519512  0.00376804  0.20218393    -0.13000
C1101       C  0.88210198  0.50142223  0.20055934     0.00700
C1102       C  0.90010631  0.49962224  0.16447628    -0.11500
C1103       C  0.88218583  0.50093093  0.12866463     0.03200
C1104       C  0.84575751  0.00494950  0.13038653    -0.10900
H1105       H  0.83111195  0.00332949  0.23003262     0.08800
H1106       H  0.92801513  0.49733017  0.16426415     0.06300
H1107       H  0.83208221  0.00599142  0.10252992     0.06200
C1108       C  0.49809225  0.67732009  0.16497792     0.03200
C1109       C  0.49664508  0.65856640  0.12935573    -0.13000
C1110       C  0.49244314  0.62262370  0.12988299     0.00700
C1111       C  0.48987653  0.60533980  0.16614232    -0.11500
C1112       C  0.49228641  0.62375266  0.20184145     0.03200
C1113       C  0.49621091  0.65975426  0.20121398    -0.10900
H1114       H  0.49842546  0.67197640  0.10131697     0.08800
H1115       H  0.48708303  0.57749309  0.16657314     0.06300
H1116       H  0.49785564  0.67407078  0.22879128     0.06200
C1117       C  0.50659037  0.82624060  0.16334645     0.03200
C1118       C  0.50797698  0.84461840  0.19922038    -0.13000
C1119       C  0.51114800  0.88065139  0.19916396     0.00700
C1120       C  0.51286236  0.89840452  0.16317797    -0.11500
C1121       C  0.51088336  0.88029355  0.12726446     0.03200
C1122       C  0.50788121  0.84421149  0.12736482    -0.10900
H1123       H  0.50676551  0.83086747  0.22707522     0.08800
H1124       H  0.51506462  0.92630977  0.16312856     0.06300
H1125       H  0.50646648  0.83015633  0.09959344     0.06200
C1126       C  0.51124220  0.89926677  0.08981504     0.42500
N1127       N  0.98773053  0.92899433  0.04128269     0.01400
C1128       C  0.58847908  0.54264307  0.25562672    -0.06500
H1129       H  0.58838143  0.56908260  0.07908243     0.06900
C1130       C  0.96990405  0.58922983  0.07348747    -0.06800
Co1131     Co  0.55403667  0.96114561  0.33055751     0.74200
N1132       N  0.57061369  0.52824858  0.04041707    -0.26000
Co1133     Co  0.54231859  0.55313277  0.33099220     0.74100
C1134       C  0.49191125  0.60296703  0.09264777     0.42600
N1135       N  0.93113884  0.51516809  0.04091291     0.01000
N1136       N  0.50948877  0.57466729  0.04183960     0.01100
N1137       N  0.59619997  0.98053354  0.25686964    -0.46800
H1138       H  0.56798177  0.91351618  0.07767104     0.06900
N1139       N  0.57551806  0.99294044  0.03977386     0.01400
N1140       N  0.51082398  0.57585483  0.28861195     0.01200
C1141       C  0.49223849  0.60509327  0.23957342     0.42800
N1142       N  0.93230214  0.98199133  0.04249510    -0.25400
C1143       C  0.54198708  0.91498948  0.25575038    -0.06400
N1144       N  0.97520028  0.91067978  0.07113631    -0.46600
N1145       N  0.52100184  0.59615228  0.25928512    -0.46800
C1146       C  0.51197727  0.89986423  0.23662067     0.42500
N1147       N  0.57760227  0.99161789  0.28746681     0.01400
N1148       N  0.93210004  0.98118743  0.28862699    -0.25500
N1149       N  0.52740518  0.93303461  0.04030386    -0.26000
N1150       N  0.93054981  0.51479436  0.28845238     0.01000
H1151       H  0.90900736  0.94240096  0.25099728     0.06900
H1152       H  0.94236546  0.59291314  0.25161793     0.07000
N1153       N  0.57198142  0.52910546  0.28699528    -0.26000
N1154       N  0.98225011  0.57233525  0.04163497    -0.25600
N1155       N  0.98761708  0.92829659  0.28792801     0.01400
C1156       C  0.60449643  0.51279849  0.08964097     0.42800
C1157       C  0.91380385  0.97007106  0.07320839    -0.06900
N1158       N  0.98155486  0.57218269  0.29002045    -0.25600
H1159       H  0.94302540  0.59158580  0.08197302     0.07000
N1160       N  0.59489677  0.98183658  0.06924742    -0.46800
H1161       H  0.90980330  0.94323529  0.08061283     0.06900
C1162       C  0.90106141  0.49961763  0.23795172     0.42600
C1163       C  0.54088231  0.91526495  0.07047349    -0.06400
Co1164     Co  0.95917884  0.95417723  0.33152338     0.73800
N1165       N  0.91200571  0.52714823  0.07061648    -0.46600
C1166       C  0.60503533  0.51323734  0.23634757     0.42900
N1167       N  0.97501408  0.91015310  0.25799298    -0.46600
Co1168     Co  0.95532516  0.54335688  0.33255911     0.73900
C1169       C  0.96924539  0.59023391  0.25945650    -0.06900
C1170       C  0.58768810  0.54204061  0.07104876    -0.06400
N1171       N  0.52896947  0.93230591  0.28697172    -0.26000
N1172       N  0.52024714  0.59457516  0.07127370    -0.46700
H1173       H  0.58898249  0.56961469  0.24755602     0.06900
C1174       C  0.91319780  0.96924756  0.25844518    -0.06900
Cl1175     Cl  0.50428223  0.50242110  0.33161864    -0.49900
C1176       C  0.90119184  0.49933216  0.09103209     0.42700
H1177       H  0.56898949  0.91312007  0.24763219     0.06900
N1178       N  0.91170133  0.52718555  0.25915052    -0.46600
C1179       C  0.53351384  0.76847090  0.15521009    -0.20200
C1180       C  0.50391235  0.78815785  0.16352400    -0.06800
C1181       C  0.47239569  0.77136353  0.17212118     0.14100
C1182       C  0.47125081  0.73512411  0.17253295    -0.20300
C1183       C  0.50085777  0.71541573  0.16432988    -0.06800
C1184       C  0.53235948  0.73221203  0.15558532     0.14100
C1185       C  0.56479174  0.71187626  0.14734854    -0.23600
H1186       H  0.55763134  0.78156514  0.14871389     0.15300
H1187       H  0.95334273  0.71591240  0.13749276     0.15400
C1188       C  0.94054161  0.78425965  0.13144573    -0.23600
H1189       H  0.58729860  0.72902461  0.14186162     0.05600
H1190       H  0.56124447  0.69536567  0.12074854     0.08800
H1191       H  0.05641417  0.70208294  0.22291403     0.08800
H1192       H  0.43406943  0.80830107  0.15444317     0.08800
H1193       H  0.92868887  0.80136377  0.15425671     0.08800
H1194       H  0.92094490  0.76484502  0.12251789     0.05600
C1195       C  0.77129397  0.97948744  0.14783978    -0.20200
C1196       C  0.78908027  0.00685392  0.16583971    -0.06800
C1197       C  0.77085467  0.53484709  0.18161708     0.14100
C1198       C  0.73462089  0.53479561  0.18005153    -0.20300
C1199       C  0.71638186  0.00745032  0.16185107    -0.06800
C1200       C  0.73513572  0.97932342  0.14581254     0.14100
C1201       C  0.71714019  0.94855782  0.12786179    -0.23600
H1202       H  0.78585304  0.95796351  0.13564712     0.15300
H1203       H  0.72024874  0.55612957  0.19296147     0.15400
C1204       C  0.78901503  0.56529771  0.20002543    -0.23600
H1205       H  0.73576207  0.92812173  0.11885842     0.05600
H1206       H  0.70280821  0.95632966  0.10106833     0.08800
H1207       H  0.69887811  0.93728879  0.14976949     0.08800
H1208       H  0.80722543  0.57680341  0.17822919     0.08800
H1209       H  0.80339621  0.55717139  0.22662896     0.08800
H1210       H  0.77048653  0.58567367  0.20946931     0.05600
C1211       C  0.67923292  0.00376385  0.49902763     0.03200
C1212       C  0.66186861  0.00452869  0.46267917    -0.13000
C1213       C  0.62508301  0.51401564  0.46096263     0.00700
C1214       C  0.60671886  0.51533451  0.49686296    -0.11500
C1215       C  0.62427819  0.51317063  0.53288876     0.03200
C1216       C  0.66022929  0.00452561  0.53453293    -0.10900
H1217       H  0.67648315  0.00389480  0.43517924     0.08800
H1218       H  0.57877917  0.51716600  0.49674588     0.06300
H1219       H  0.67354193  0.00383819  0.56263443     0.06200
C1220       C  0.82826141  0.00446146  0.50053293     0.03200
C1221       C  0.84689438  0.00572284  0.53599163    -0.13000
C1222       C  0.88266168  0.49820619  0.53450059     0.00700
C1223       C  0.90033496  0.49627236  0.49825176    -0.11500
C1224       C  0.88206074  0.49756150  0.46271560     0.03200
C1225       C  0.84602557  0.00311492  0.46419623    -0.10900
H1226       H  0.83323835  0.00632220  0.56412894     0.08800
H1227       H  0.92825630  0.49411823  0.49769694     0.06300
H1228       H  0.83170785  0.00197828  0.43676773     0.06200
C1229       C  0.50154918  0.67667366  0.49898867     0.03200
C1230       C  0.49972467  0.65810691  0.46333214    -0.13000
C1231       C  0.49516939  0.62226690  0.46372256     0.00700
C1232       C  0.49232297  0.60485450  0.49984907    -0.11500
C1233       C  0.49490804  0.62313203  0.53560147     0.03200
C1234       C  0.49955695  0.65902395  0.53514969    -0.10900
H1235       H  0.50153966  0.67160063  0.43534354     0.08800
H1236       H  0.48906323  0.57705582  0.50013712     0.06300
H1237       H  0.50099432  0.67324787  0.56280728     0.06200
C1238       C  0.50645259  0.82550402  0.49615278     0.03200
C1239       C  0.50714057  0.84360255  0.53221635    -0.13000
C1240       C  0.50963885  0.87966510  0.53255890     0.00700
C1241       C  0.51161892  0.89772030  0.49678752    -0.11500
C1242       C  0.51057121  0.87981168  0.46069066     0.03200
C1243       C  0.50800272  0.84374099  0.46038284    -0.10900
H1244       H  0.50584146  0.82961880  0.55991550     0.08800
H1245       H  0.51351582  0.92564772  0.49703663     0.06300
H1246       H  0.50757932  0.82986919  0.43243640     0.06200
C1247       C  0.51167472  0.89886947  0.42338688     0.42500
N1248       N  0.98733243  0.92822796  0.37455943     0.01400
C1249       C  0.58867571  0.54220520  0.59026140    -0.06500
H1250       H  0.59047892  0.57034342  0.41235440     0.06900
C1251       C  0.96881832  0.58873359  0.40768812    -0.06800
Co1252     Co  0.55158124  0.96000360  0.66423705     0.74200
N1253       N  0.57279880  0.52941947  0.37372327    -0.26000
Co1254     Co  0.54215480  0.55217184  0.66537443     0.74100
C1255       C  0.49441787  0.60294833  0.42640328     0.42600
N1256       N  0.93040186  0.51334826  0.37503162     0.01000
N1257       N  0.51166824  0.57556765  0.37493203     0.01100
N1258       N  0.59477059  0.97908581  0.59131725    -0.46800
H1259       H  0.56872799  0.91242725  0.41220326     0.06900
N1260       N  0.57793012  0.99102838  0.37409257     0.01400
N1261       N  0.51136523  0.57541080  0.62286508     0.01200
C1262       C  0.49395114  0.60451007  0.57326263     0.42800
N1263       N  0.93193808  0.98146631  0.37492150    -0.25400
C1264       C  0.53997162  0.91375074  0.58951730    -0.06400
N1265       N  0.97464225  0.90989014  0.40435679    -0.46600
N1266       N  0.52224558  0.59550896  0.59371626    -0.46800
C1267       C  0.51013052  0.89851194  0.57022464     0.42500
N1268       N  0.57527770  0.99030869  0.62109777     0.01400
N1269       N  0.93389166  0.98514485  0.62184622    -0.25500
N1270       N  0.52891233  0.93179583  0.37366105    -0.26000
N1271       N  0.93160294  0.51281126  0.62147578     0.01000
H1272       H  0.91150294  0.94655154  0.58344129     0.06900
H1273       H  0.94287094  0.59175748  0.58462700     0.07000
N1274       N  0.57196270  0.52836992  0.62131175    -0.26000
N1275       N  0.98131894  0.57087902  0.37657961    -0.25600
N1276       N  0.98917537  0.93188746  0.62097671     0.01400
C1277       C  0.60644002  0.51406868  0.42334509     0.42800
C1278       C  0.91344283  0.96989493  0.40585396    -0.06900
N1279       N  0.98213295  0.57073641  0.62270583    -0.25600
H1280       H  0.94185722  0.59172838  0.41554388     0.07000
N1281       N  0.59738773  0.97956757  0.40335190    -0.46800
H1282       H  0.90955326  0.94314656  0.41372494     0.06900
C1283       C  0.90197211  0.49692535  0.57151857     0.42600
C1284       C  0.54177831  0.91424127  0.40434397    -0.06400
Co1285     Co  0.96073074  0.95778758  0.66470928     0.73800
N1286       N  0.91158972  0.52483431  0.40523958    -0.46600
C1287       C  0.60484962  0.51293420  0.57034088     0.42900
N1288       N  0.97660815  0.91344825  0.59123162    -0.46600
Co1289     Co  0.95596530  0.54184082  0.66529823     0.73900
C1290       C  0.96976560  0.58907929  0.59241041    -0.06900
C1291       C  0.58980948  0.54328300  0.40440381    -0.06400
N1292       N  0.52675702  0.93088211  0.62074138    -0.26000
N1293       N  0.52261439  0.59503339  0.40461721    -0.46700
H1294       H  0.58946216  0.56928510  0.58270819     0.06900
C1295       C  0.91545912  0.97336194  0.59121952    -0.06900
Cl1296     Cl  0.50368107  0.50181380  0.66488710    -0.49900
C1297       C  0.90073034  0.49663880  0.42492494     0.42700
H1298       H  0.56699528  0.91216861  0.58141553     0.06900
N1299       N  0.91252043  0.52480093  0.59219667    -0.46600
C1300       C  0.53405212  0.76887835  0.50825715    -0.20200
C1301       C  0.50492556  0.78740850  0.49604189    -0.06800
C1302       C  0.47483358  0.76947424  0.48465713     0.14100
C1303       C  0.47458593  0.73327937  0.48576720    -0.20300
C1304       C  0.50361484  0.71474219  0.49822483    -0.06800
C1305       C  0.53380980  0.73265140  0.50931581     0.14100
C1306       C  0.56591659  0.71358197  0.52137693    -0.23600
H1307       H  0.55709519  0.78286963  0.51679131     0.15300
H1308       H  0.94998004  0.71723930  0.48329719     0.15400
C1309       C  0.93740570  0.78598974  0.48094554    -0.23600
H1310       H  0.58748827  0.73156151  0.52796348     0.05600
H1311       H  0.57434772  0.69608447  0.49702334     0.08800
H1312       H  0.06340746  0.70053286  0.54624377     0.08800
H1313       H  0.44813033  0.80389203  0.44538931     0.08800
H1314       H  0.92931809  0.80264222  0.50621190     0.08800
H1315       H  0.91649452  0.76699705  0.47534757     0.05600
C1316       C  0.77235795  0.97302371  0.50101416    -0.20200
C1317       C  0.79010938  0.00459051  0.50126949    -0.06800
C1318       C  0.77231556  0.53388696  0.51447206     0.14100
C1319       C  0.73608135  0.53478827  0.51323817    -0.20300
C1320       C  0.71737087  0.00329484  0.50001840    -0.06800
C1321       C  0.73607730  0.97203930  0.50058416     0.14100
C1322       C  0.71768366  0.93779630  0.50071784    -0.23600
H1323       H  0.78695903  0.94914990  0.50105389     0.15300
H1324       H  0.72239756  0.55735332  0.52418733     0.15400
C1325       C  0.79165535  0.56483668  0.52995829    -0.23600
H1326       H  0.73613148  0.91585486  0.50119427     0.05600
H1327       H  0.70163843  0.93531515  0.47375730     0.08800
H1328       H  0.70078419  0.93599341  0.52734019     0.08800
H1329       H  0.80973482  0.57447895  0.50684836     0.08800
H1330       H  0.80641394  0.55781313  0.55672984     0.08800
H1331       H  0.77387557  0.58622607  0.53823255     0.05600
C1332       C  0.67854305  0.00616944  0.83010548     0.03200
C1333       C  0.66065249  0.00576054  0.79407331    -0.13000
C1334       C  0.62463169  0.51128345  0.79467160     0.00700
C1335       C  0.60628148  0.51391754  0.83044052    -0.11500
C1336       C  0.62370230  0.51211623  0.86652336     0.03200
C1337       C  0.65994373  0.00760170  0.86592914    -0.10900
H1338       H  0.67488368  0.00462218  0.76633119     0.08800
H1339       H  0.57839587  0.51646360  0.83019971     0.06300
H1340       H  0.67361329  0.00767712  0.89381332     0.06200
C1341       C  0.82788094  0.00628129  0.83218007     0.03200
C1342       C  0.84553502  0.00511336  0.86832420    -0.13000
C1343       C  0.88274481  0.49950429  0.86727837     0.00700
C1344       C  0.90035932  0.49700299  0.83100862    -0.11500
C1345       C  0.88200861  0.49705105  0.79545490     0.03200
C1346       C  0.84670079  0.00649203  0.79646332    -0.10900
H1347       H  0.83109779  0.00476594  0.89594881     0.08800
H1348       H  0.92830811  0.49525402  0.83044435     0.06300
H1349       H  0.83316168  0.00708482  0.76850784     0.06200
C1350       C  0.49739622  0.67661971  0.83259887     0.03200
C1351       C  0.49674310  0.65806862  0.79682310    -0.13000
C1352       C  0.49296827  0.62211936  0.79701105     0.00700
C1353       C  0.48968821  0.60457286  0.83298890    -0.11500
C1354       C  0.49103062  0.62280199  0.86884290     0.03200
C1355       C  0.49475938  0.65881411  0.86862913    -0.10900
H1356       H  0.49865280  0.67163533  0.76889374     0.08800
H1357       H  0.48712043  0.57669888  0.83310793     0.06300
H1358       H  0.49570181  0.67295213  0.89637694     0.06200
C1359       C  0.50328557  0.82568037  0.83171633     0.03200
C1360       C  0.50476717  0.84436782  0.86739392    -0.13000
C1361       C  0.50835577  0.88036535  0.86691912     0.00700
C1362       C  0.51043440  0.89776362  0.83072872    -0.11500
C1363       C  0.50832949  0.87935085  0.79503548     0.03200
C1364       C  0.50487911  0.84333971  0.79555075    -0.10900
H1365       H  0.50363343  0.83087346  0.89541724     0.08800
H1366       H  0.51306116  0.92562836  0.83034544     0.06300
H1367       H  0.50357470  0.82905887  0.76791946     0.06200
C1368       C  0.50936016  0.89786586  0.75731720     0.42500
N1369       N  0.98860785  0.93145927  0.70766203     0.01400
C1370       C  0.58714790  0.54186046  0.92284550    -0.06500
H1371       H  0.59018897  0.56820486  0.74703297     0.06900
C1372       C  0.96893208  0.58758873  0.74009197    -0.06800
Co1373     Co  0.55180519  0.96255037  0.99672955     0.74200
N1374       N  0.57211120  0.52777912  0.70800277    -0.26000
Co1375     Co  0.54024197  0.55211458  0.99786106     0.74100
C1376       C  0.49304775  0.60278181  0.75969223     0.42600
N1377       N  0.93099027  0.51197653  0.70791325     0.01000
N1378       N  0.51116801  0.57461315  0.70914527     0.01100
N1379       N  0.59456816  0.98173790  0.92350109    -0.46800
H1380       H  0.56630232  0.91195846  0.74631731     0.06900
N1381       N  0.57531843  0.99024255  0.70749942     0.01400
N1382       N  0.50888558  0.57480899  0.95552799     0.01200
C1383       C  0.49062095  0.60393148  0.90634835     0.42800
N1384       N  0.93351478  0.98487331  0.70844737    -0.25400
C1385       C  0.53951058  0.91577796  0.92242799    -0.06400
N1386       N  0.97559716  0.91289211  0.73706164    -0.46600
N1387       N  0.51924635  0.59505636  0.92628144    -0.46800
C1388       C  0.50946543  0.89991760  0.90413367     0.42500
N1389       N  0.57504016  0.99293909  0.95326590     0.01400
N1390       N  0.93181948  0.98239235  0.95603985    -0.25500
N1391       N  0.52645671  0.93076086  0.70746388    -0.26000
N1392       N  0.93162233  0.51525630  0.95430804     0.01000
H1393       H  0.90918055  0.94410174  0.91735609     0.06900
H1394       H  0.94286387  0.59475338  0.91771589     0.07000
N1395       N  0.57008836  0.52821348  0.95379056    -0.26000
N1396       N  0.98161969  0.56972032  0.70913560    -0.25600
N1397       N  0.98728203  0.92919042  0.95475703     0.01400
C1398       C  0.60596468  0.51173483  0.75710052     0.42800
C1399       C  0.91518983  0.97300768  0.73937582    -0.06900
N1400       N  0.98234464  0.57319805  0.95507391    -0.25600
H1401       H  0.94193757  0.59048338  0.74784113     0.07000
N1402       N  0.59536781  0.97921200  0.73645345    -0.46800
H1403       H  0.91135328  0.94618241  0.74692464     0.06900
C1404       C  0.90212595  0.49883024  0.90437101     0.42600
C1405       C  0.53936365  0.91348191  0.73832789    -0.06400
Co1406     Co  0.95922036  0.95503654  0.99865345     0.73800
N1407       N  0.91174843  0.52365444  0.73767218    -0.46600
C1408       C  0.60401498  0.51249215  0.90375928     0.42900
N1409       N  0.97435743  0.91092177  0.92508735    -0.46600
Co1410     Co  0.95620222  0.54457162  0.99793551     0.73900
C1411       C  0.96982414  0.59178693  0.92506886    -0.06900
C1412       C  0.58927885  0.54121715  0.73878358    -0.06400
N1413       N  0.52667269  0.93320889  0.95366049    -0.26000
N1414       N  0.52168133  0.59424954  0.73892194    -0.46700
H1415       H  0.58801372  0.56889588  0.91509232     0.06900
C1416       C  0.91314589  0.97085123  0.92540440    -0.06900
Cl1417     Cl  0.50228940  0.50135170  0.99829233    -0.49900
C1418       C  0.90074416  0.49565005  0.75761244     0.42700
H1419       H  0.56643376  0.91417038  0.91388774     0.06900
N1420       N  0.91272974  0.52694534  0.92466279    -0.46600
C1421       C  0.53029334  0.76846119  0.82008967    -0.20200
C1422       C  0.50124102  0.78754973  0.83213495    -0.06800
C1423       C  0.47093563  0.77010312  0.84416381     0.14100
C1424       C  0.47054192  0.73385896  0.84431081    -0.20300
C1425       C  0.49959530  0.71475287  0.83231255    -0.06800
C1426       C  0.52986743  0.73220593  0.82008691     0.14100
C1427       C  0.56193405  0.71268111  0.80798061    -0.23600
H1428       H  0.55347154  0.78205193  0.81093330     0.15300
H1429       H  0.94698342  0.71749574  0.84969149     0.15400
C1430       C  0.93368459  0.78617212  0.85236597    -0.23600
H1431       H  0.58360837  0.73038959  0.80069870     0.05600
H1432       H  0.55675125  0.69667748  0.78136934     0.08800
H1433       H  0.07129740  0.70175999  0.82822539     0.08800
H1434       H  0.43059327  0.80636401  0.83098207     0.08800
H1435       H  0.93773816  0.80258279  0.87892800     0.08800
H1436       H  0.91325692  0.76703495  0.85961193     0.05600
C1437       C  0.77170921  0.97522406  0.83175613    -0.20200
C1438       C  0.78964558  0.00669446  0.83167140    -0.06800
C1439       C  0.77152140  0.53232936  0.84763901     0.14100
C1440       C  0.73524894  0.53244278  0.84688989    -0.20300
C1441       C  0.71676843  0.00566854  0.83041595    -0.06800
C1442       C  0.73540951  0.97436977  0.83116961     0.14100
C1443       C  0.71691722  0.94017964  0.83144640    -0.23600
H1444       H  0.78619383  0.95128892  0.83229187     0.15300
H1445       H  0.72121835  0.55480232  0.85782062     0.15400
C1446       C  0.79027301  0.56380934  0.86267827    -0.23600
H1447       H  0.73529799  0.91818699  0.83208691     0.05600
H1448       H  0.70093450  0.93763151  0.80444428     0.08800
H1449       H  0.69994659  0.93852914  0.85802243     0.08800
H1450       H  0.80794045  0.57371692  0.83930456     0.08800
H1451       H  0.80538035  0.55733571  0.88936843     0.08800
H1452       H  0.77207581  0.58484326  0.87096376     0.05600
loop_ 
_geom_bond_atom_site_label_1 
_geom_bond_atom_site_label_2 
_geom_bond_distance 
_geom_bond_site_symmetry_2 
_ccdc_geom_bond_type 
C1            C2   1.405       .  A
C1            C6   1.405       .  A
C1          C110   1.483       .  S
C2          C366   1.401       .  A
C2            H7   1.084       .  S
C3            C4   1.402       .  A
C3          C365   1.404       .  A
C3           C67   1.468   1_565  S
C4            C5   1.401       .  A
C4            H8   1.084       .  S
C5          C369   1.401       .  A
C5           C77   1.465       .  S
C6          C368   1.402       .  A
C6            H9   1.084       .  S
C10          C11   1.406       .  A
C10          C15   1.405       .  A
C10         C107   1.484       .  S
C11         C375   1.403       .  A
C11          H16   1.084       .  S
C12          C13   1.401       .  A
C12         C374   1.404       .  A
C12          C73   1.467       .  S
C13          C14   1.400       .  A
C13          H17   1.084       .  S
C14         C378   1.401       .  A
C14          C87   1.464       .  S
C15         C377   1.401       .  A
C15          H18   1.084       .  S
C19          C20   1.405       .  A
C19          C24   1.407       .  A
C19          C94   1.483       .  S
C20          C21   1.401       .  A
C20          H25   1.084       .  S
C21          C22   1.399       .  A
C21          C45   1.464       .  S
C22          C23   1.400       .  A
C22          H26   1.085       .  S
C23          C24   1.403       .  A
C23          C52   1.466       .  S
C24          H27   1.084       .  S
C28          C29   1.405       .  A
C28          C33   1.406       .  A
C28          C91   1.483       .  S
C29          C30   1.402       .  A
C29          H34   1.084       .  S
C30          C31   1.399       .  A
C30          C57   1.465       .  S
C31          C32   1.400       .  A
C31          H35   1.085       .  S
C32          C33   1.403       .  A
C32          C37   1.466       .  S
C33          H36   1.084       .  S
C37          C74   1.455       .  S
C37         N781   1.348   1_455  A
N38          N55   1.325       .  A
N38         N786   1.321       .  A
N38        Co317   2.084   1_554  S
C39          C77   1.454   1_545  S
C39          H84   1.081       .  S
C39          N64   1.340       .  A
H40          C81   1.081       .  S
C41         C771   1.458       .  S
C41          H70   1.081       .  S
C41          N65   1.343       .  A
Co42         N82   2.088       .  S
Co42         N58   2.086       .  S
Co42        N181   2.083       .  S
Co42        N171   2.093       .  S
Co42       Cl449   2.455       .  S
N43          C81   1.341       .  A
N43         N413   1.321   1_545  A
N43        Co286   2.085   1_554  S
Co44         N64   2.083       .  S
Co44         N51   2.084       .  S
Co44        N164   2.080       .  S
Co44        N168   2.082       .  S
Co44        Cl86   2.454       .  S
C45         C767   1.455   1_455  S
C45          N83   1.347       .  A
N46          N76   1.325       .  A
N46         N416   1.321   1_545  A
N46        Co321   2.086   1_554  S
N47          N83   1.325       .  A
N47         N791   1.321   1_455  A
N47        Co286   2.082   1_554  S
N48         C440   1.348       .  A
N48          N58   1.325       .  A
H49          C74   1.081       .  S
N50          N71   1.326       .  A
N50         N406   1.321       .  A
N50        Co284   2.088   1_554  S
N51          N56   1.325       .  A
N51         N795   1.321   1_455  A
C52         C806   1.457   1_455  S
C52          N56   1.348       .  A
N53          C68   1.343       .  A
N53         N409   1.321       .  A
N53        Co317   2.089   1_554  S
C54          C57   1.455       .  S
C54          H88   1.081       .  S
C54          N82   1.341       .  A
N55         C763   1.348       .  A
C57         N804   1.348   1_455  A
N58         N427   1.321       .  A
N59          C85   1.342       .  A
N59         N424   1.321       .  A
N59         Co75   2.090       .  S
N60          C74   1.341       .  A
N60         N764   1.321   1_455  A
N60        Co284   2.086   1_554  S
N61          N89   1.326       .  A
N61         N422   1.321   1_545  A
N61         Co79   2.087       .  S
H62          C85   1.081       .  S
H63          C80   1.081       .  S
N64         N421   1.321   1_545  A
N65         N773   1.321       .  A
N65        Co321   2.092   1_554  S
N66          N78   1.325       .  A
N66         N808   1.321       .  A
N66         Co75   2.085       .  S
C67          C81   1.455       .  S
C67         N434   1.350   1_545  A
C68         C450   1.456       .  S
C68          H72   1.081       .  S
N69          C80   1.342       .  A
N69         N777   1.321       .  A
N69         Co79   2.087       .  S
N71         C430   1.349       .  A
C73         C448   1.456       .  S
C73          N89   1.349   1_565  A
Co75        N159   2.084       .  S
Co75        N174   2.088       .  S
Co75      Cl1175   2.454       .  S
N76          C87   1.347   1_545  A
C77         N411   1.348       .  A
N78         C783   1.348       .  A
Co79        N167   2.085       .  S
Co79        N186   2.089       .  S
Co79       Cl812   2.453       .  S
C80         C778   1.455       .  S
N82         N792   1.321   1_455  A
C85         C436   1.457       .  S
Cl86       Co405   2.453   1_545  S
Cl86      Co1164   2.454   1_445  S
Cl86       Co805   2.451   1_455  S
C87         C431   1.455       .  S
C90          C91   1.404       .  A
C90          C95   1.406       .  A
C90          H97   1.084       .  S
C91          C92   1.413   1_455  A
C92          C93   1.405       .  A
C92         C825   1.507       .  S
C93          C94   1.403   1_655  A
C93         H824   1.084       .  S
C94          C95   1.413       .  A
C95          C96   1.507       .  S
C96         H100   1.111       .  S
C96         H101   1.110       .  S
C96         H828   1.109       .  S
H98         C819   1.084       .  S
C99         C818   1.507       .  S
C99         H104   1.110       .  S
C99         H105   1.111       .  S
C99         H829   1.108       .  S
H102        C822   1.108       .  S
H103        C825   1.109       .  S
C106        C107   1.403       .  A
C106        C111   1.404       .  A
C106        H113   1.084       .  S
C107        C471   1.414       .  A
C108        C109   1.406       .  A
C108        C470   1.412   1_545  A
C108        C115   1.506       .  S
C109        C473   1.403   1_545  A
C109        H114   1.084       .  S
C110        C111   1.414       .  A
C110        C472   1.404       .  A
C111        C112   1.508       .  S
C112        H116   1.111       .  S
C112        H117   1.108       .  S
C112        H118   1.110       .  S
C115        H119   1.110       .  S
C115        H120   1.110       .  S
C115        H121   1.111       .  S
C122        C123   1.406       .  A
C122        C127   1.403       .  A
C122        C231   1.480       .  S
C123        C487   1.404       .  A
C123        H128   1.084       .  S
C124        C486   1.401       .  A
C124        C125   1.400   1_565  A
C124        C188   1.463       .  S
C125        C126   1.400       .  A
C125        H129   1.084       .  S
C126        C490   1.401   1_545  A
C126        C198   1.464       .  S
C127        C489   1.401       .  A
C127        H130   1.084       .  S
C131        C132   1.405       .  A
C131        C136   1.403       .  A
C131        C228   1.479       .  S
C132        C496   1.403       .  A
C132        H137   1.084       .  S
C133        C495   1.402       .  A
C133        C134   1.400       .  A
C133        C194   1.466       .  S
C134        C135   1.400       .  A
C134        H138   1.084       .  S
C135        C499   1.401       .  A
C135        C208   1.463       .  S
C136        C498   1.402       .  A
C136        H139   1.084       .  S
C140        C141   1.403       .  A
C140        C145   1.405       .  A
C140        C215   1.480       .  S
C141        C142   1.400       .  A
C141        H146   1.084       .  S
C142        C143   1.401       .  A
C142        C166   1.463       .  S
C143        C144   1.401       .  A
C143        H147   1.084       .  S
C144        C145   1.401       .  A
C144        C173   1.465       .  S
C145        H148   1.084       .  S
C149        C150   1.404       .  A
C149        C154   1.405       .  A
C149        C212   1.480       .  S
C150        C151   1.400       .  A
C150        H155   1.084       .  S
C151        C152   1.400       .  A
C151        C178   1.463       .  S
C152        C153   1.400       .  A
C152        H156   1.084       .  S
C153        C154   1.401       .  A
C153        C158   1.464       .  S
C154        H157   1.084       .  S
C158        C195   1.454       .  S
C158        N902   1.348   1_455  A
N159        N176   1.325       .  A
N159        N907   1.321       .  A
C160        C198   1.456       .  S
C160        H205   1.081       .  S
C160        N185   1.341       .  A
H161        C202   1.081       .  S
C162        C892   1.455       .  S
C162        H191   1.081       .  S
C162        N186   1.342       .  A
Co163       N302   2.092       .  S
Co163       N292   2.085       .  S
Co163       N203   2.085       .  S
Co163       N179   2.089       .  S
Co163      Cl570   2.453       .  S
N164        C202   1.340       .  A
N164        N534   1.321   1_545  A
Co165       N285   2.082       .  S
Co165       N289   2.089       .  S
Co165       N185   2.086       .  S
Co165       N172   2.088       .  S
Co165      Cl207   2.454       .  S
C166        C888   1.455   1_455  S
C166        N204   1.347       .  A
N167        N537   1.321   1_545  A
N167        N197   1.325       .  A
N168        N912   1.320   1_455  A
N168        N204   1.325       .  A
N169        C561   1.348       .  A
N169        N179   1.325       .  A
H170        C195   1.081       .  S
N171        N527   1.321       .  A
N171        N192   1.327       .  A
N172        N916   1.321   1_455  A
N172        N177   1.326       .  A
C173        C927   1.454   1_455  S
C173        N177   1.349       .  A
N174        C189   1.342       .  A
N174        N530   1.321       .  A
C175        C178   1.455       .  S
C175        H209   1.081       .  S
C175        N203   1.342       .  A
N176        C884   1.347       .  A
C178        N925   1.347   1_455  A
N179        N548   1.321       .  A
N180        C206   1.341       .  A
N180        N545   1.321       .  A
N180       Co196   2.088       .  S
N181        C195   1.340       .  A
N181        N885   1.321   1_455  A
N182        N543   1.321   1_545  A
N182        N210   1.325       .  A
N182       Co200   2.088       .  S
H183        C206   1.081       .  S
H184        C201   1.081       .  S
N185        N542   1.321   1_545  A
N186        N894   1.321       .  A
N187        N199   1.325       .  A
N187        N929   1.321       .  A
N187       Co196   2.084       .  S
C188        C202   1.452   1_565  S
C188        N555   1.348       .  A
C189        C571   1.456       .  S
C189        H193   1.081       .  S
N190        C201   1.343       .  A
N190        N898   1.321       .  A
N190       Co200   2.093       .  S
N192        C551   1.350       .  A
C194        C569   1.456       .  S
C194        N210   1.349   1_565  A
Co196       N280   2.083       .  S
Co196       N295   2.087       .  S
Co196     Cl1296   2.454       .  S
N197        C208   1.348   1_545  A
C198        N532   1.347   1_545  A
N199        C904   1.348       .  A
Co200       N288   2.086       .  S
Co200       N307   2.090       .  S
Co200      Cl933   2.454   1_545  S
C201        C899   1.459       .  S
N203        N913   1.321   1_455  A
C206        C557   1.456       .  S
Cl207      Co526   2.454   1_545  S
Cl207     Co1285   2.452   1_445  S
Cl207      Co926   2.455   1_455  S
C208        C552   1.454       .  S
C211        C212   1.403       .  A
C211        C216   1.403       .  A
C211        H218   1.084       .  S
C212        C213   1.414   1_455  A
C213        C214   1.403       .  A
C213        C946   1.508       .  S
C214        C215   1.403   1_655  A
C214        H945   1.084       .  S
C215        C216   1.414       .  A
C216        C217   1.507       .  S
C217        H221   1.111       .  S
C217        H222   1.108       .  S
C217        H949   1.110       .  S
H219        C940   1.084       .  S
C220        C939   1.507       .  S
C220        H950   1.109       .  S
C220        H225   1.110       .  S
C220        H226   1.111       .  S
H223        C943   1.109       .  S
H224        C946   1.110       .  S
C227        C228   1.402       .  A
C227        C232   1.405       .  A
C227        H234   1.084       .  S
C228        C592   1.412       .  A
C229        C591   1.413   1_545  A
C229        C230   1.404       .  A
C229        C236   1.507       .  S
C230        C594   1.403   1_545  A
C230        H235   1.084       .  S
C231        C593   1.403       .  A
C231        C232   1.412       .  A
C232        C233   1.506       .  S
C233        H237   1.111       .  S
C233        H238   1.110       .  S
C233        H239   1.110       .  S
C236        H240   1.110       .  S
C236        H241   1.108       .  S
C236        H242   1.111       .  S
C243        C244   1.405       .  A
C243        C248   1.404       .  A
C243        C352   1.480       .  S
C244        C608   1.402       .  A
C244        H249   1.084       .  S
C245        C607   1.399   1_545  A
C245        C246   1.399       .  A
C245        C309   1.460       .  S
C246        C247   1.399   1_545  A
C246        H250   1.085       .  S
C247        C611   1.400       .  A
C247        C319   1.460   1_565  S
C248        C610   1.400       .  A
C248        H251   1.084       .  S
C252        C253   1.404       .  A
C252        C257   1.404       .  A
C252        C349   1.479       .  S
C253        C617   1.400       .  A
C253        H258   1.084       .  S
C254        C616   1.400       .  A
C254        C255   1.401       .  A
C254        C315   1.463       .  S
C255        C256   1.401       .  A
C255        H259   1.084       .  S
C256        C620   1.399       .  A
C256        C329   1.463       .  S
C257        C619   1.401       .  A
C257        H260   1.084       .  S
C261        C262   1.402       .  A
C261        C266   1.403       .  A
C261        C336   1.476       .  S
C262        C263   1.401       .  A
C262        H267   1.084       .  S
C263        C264   1.401       .  A
C263        C287   1.464       .  S
C264        C265   1.401       .  A
C264        H268   1.084       .  S
C265        C266   1.401       .  A
C265        C294   1.464       .  S
C266        H269   1.084       .  S
C270        C271   1.403       .  A
C270        C275   1.404       .  A
C270        C333   1.477       .  S
C271        C272   1.401       .  A
C271        H276   1.084       .  S
C272        C273   1.401       .  A
C272        C299   1.466       .  S
C273        C274   1.402       .  A
C273        H277   1.084       .  S
C274        C275   1.402       .  A
C274        C279   1.467       .  S
C275        H278   1.084       .  S
C279        C316   1.458       .  S
C279       N1023   1.348   1_455  A
N280        N297   1.325       .  A
N280       N1028   1.321       .  A
C281        C319   1.453       .  S
C281        H326   1.081       .  S
C281        N306   1.339       .  A
H282        C323   1.081       .  S
C283       C1013   1.456       .  S
C283        H312   1.081       .  S
C283        N307   1.342       .  A
Co284       N324   2.089       .  S
Co284       N300   2.082       .  S
Co284      Cl691   2.453       .  S
N285        C323   1.340       .  A
N285        N655   1.321   1_545  A
Co286       N306   2.079       .  S
Co286       N293   2.087       .  S
Co286      Cl328   2.453       .  S
C287       C1009   1.453   1_455  S
C287        N325   1.349       .  A
N288        N658   1.321   1_545  A
N288        N318   1.324       .  A
N289       N1033   1.321   1_455  A
N289        N325   1.326       .  A
N290        C682   1.346       .  A
N290        N300   1.324       .  A
H291        C316   1.081       .  S
N292        N648   1.321       .  A
N292        N313   1.325       .  A
N293       N1037   1.321   1_455  A
N293        N298   1.325       .  A
C294       C1048   1.454   1_455  S
C294        N298   1.348       .  A
N295        C310   1.341       .  A
N295        N651   1.321       .  A
C296        C299   1.456       .  S
C296        H330   1.081       .  S
C296        N324   1.343       .  A
N297       C1005   1.347       .  A
C299       N1046   1.347   1_455  A
N300        N669   1.321       .  A
N301        C327   1.341       .  A
N301        N666   1.321       .  A
N301       Co317   2.087       .  S
N302        C316   1.342       .  A
N302       N1006   1.321   1_455  A
N303        N664   1.321   1_545  A
N303        N331   1.325       .  A
N303       Co321   2.088       .  S
H304        C327   1.081       .  S
H305        C322   1.081       .  S
N306        N663   1.320   1_545  A
N307       N1015   1.321       .  A
N308        N320   1.325       .  A
N308       N1050   1.321       .  A
N308       Co317   2.087       .  S
C309        C323   1.453       .  S
C309        N676   1.347   1_545  A
C310        C692   1.455       .  S
C310        H314   1.081       .  S
N311        C322   1.343       .  A
N311       N1019   1.321       .  A
N311       Co321   2.092       .  S
N313        C672   1.348       .  A
C315        C690   1.453       .  S
C315        N331   1.348   1_565  A
Co317     Cl1417   2.456       .  S
N318        C329   1.347   1_545  A
C319        N653   1.348   1_545  A
N320       C1025   1.348       .  A
Co321     Cl1054   2.453       .  S
C322       C1020   1.458       .  S
N324       N1034   1.321   1_455  A
C327        C678   1.455       .  S
Cl328      Co647   2.453   1_545  S
Cl328     Co1406   2.453   1_445  S
Cl328     Co1047   2.454   1_455  S
C329        C673   1.454       .  S
C332        C333   1.402       .  A
C332        C337   1.403       .  A
C332        H339   1.084       .  S
C333        C334   1.412   1_455  A
C334        C335   1.405       .  A
C334       C1067   1.506       .  S
C335        C336   1.403   1_655  A
C335       H1066   1.084       .  S
C336        C337   1.411       .  A
C337        C338   1.506       .  S
C338        H342   1.111       .  S
C338        H343   1.110       .  S
C338       H1070   1.110       .  S
H340       C1061   1.084       .  S
C341       C1060   1.506       .  S
C341       H1071   1.110       .  S
C341        H346   1.110       .  S
C341        H347   1.111       .  S
H344       C1064   1.110       .  S
H345       C1067   1.110       .  S
C348        C349   1.403       .  A
C348        C353   1.405       .  A
C348        H355   1.084       .  S
C349        C713   1.413       .  A
C350        C712   1.413   1_545  A
C350        C351   1.403       .  A
C350        C357   1.508       .  S
C351        C715   1.403   1_545  A
C351        H356   1.084       .  S
C352        C714   1.403       .  A
C352        C353   1.413       .  A
C353        C354   1.507       .  S
C354        H358   1.111       .  S
C354        H359   1.109       .  S
C354        H360   1.110       .  S
C357        H361   1.110       .  S
C357        H362   1.108       .  S
C357        H363   1.111       .  S
C364        C365   1.405       .  A
C364        C369   1.403       .  A
C364        C473   1.479       .  S
C365        H370   1.084       .  S
C366        C367   1.401       .  A
C366        C430   1.466       .  S
C367        C368   1.401       .  A
C367        H371   1.084       .  S
C368        C440   1.466       .  S
C369        H372   1.084       .  S
C373        C374   1.405       .  A
C373        C378   1.403       .  A
C373        C470   1.478       .  S
C374        H379   1.084       .  S
C375        C376   1.400       .  A
C375        C436   1.466       .  S
C376        C377   1.400       .  A
C376        H380   1.084       .  S
C377        C450   1.465       .  S
C378        H381   1.084       .  S
C382        C383   1.403       .  A
C382        C387   1.403       .  A
C382        C457   1.477       .  S
C383        C384   1.399       .  A
C383        H388   1.084       .  S
C384        C385   1.401       .  A
C384        C408   1.464       .  S
C385        C386   1.401       .  A
C385        H389   1.084   1_455  S
C386        C387   1.399       .  A
C386        C415   1.463   1_455  S
C387        H390   1.084       .  S
C391        C392   1.404       .  A
C391        C396   1.403   1_655  A
C391        C454   1.477       .  S
C392        C393   1.400   1_655  A
C392        H397   1.084       .  S
C393        C394   1.399       .  A
C393        C420   1.462       .  S
C394        C395   1.399       .  A
C394        H398   1.084       .  S
C395        C396   1.399       .  A
C395        C400   1.460       .  S
C396        H399   1.084       .  S
C400        C437   1.453       .  S
C400       N1144   1.347   1_455  A
N401        N418   1.325       .  A
N401       N1149   1.320       .  A
N401       Co680   2.084   1_554  S
C402        C440   1.455       .  S
C402        H447   1.081       .  S
C402        N427   1.342       .  A
H403        C444   1.081       .  S
C404       C1134   1.457       .  S
C404        H433   1.081       .  S
C404        N428   1.343       .  A
Co405       N544   2.084       .  S
Co405       N534   2.087       .  S
Co405       N445   2.083       .  S
Co405       N421   2.088       .  S
N406        C444   1.341       .  A
N406       Co649   2.085   1_554  S
Co407       N527   2.085       .  S
Co407       N531   2.089       .  S
Co407       N427   2.088       .  S
Co407       N414   2.085       .  S
Co407      Cl449   2.453       .  S
C408       C1130   1.455   1_455  S
C408        N446   1.347       .  A
N409        N439   1.324       .  A
N409       Co684   2.083   1_554  S
N410       N1154   1.321   1_455  A
N410        N446   1.325       .  A
N410       Co649   2.084   1_554  S
N411        N421   1.326       .  A
H412        C437   1.081       .  S
N413        N434   1.327       .  A
N413       Co647   2.093   1_554  S
N414       N1158   1.321   1_455  A
N414        N419   1.325       .  A
C415       C1169   1.454       .  S
C415        N419   1.348   1_655  A
N416        C431   1.342       .  A
N416       Co680   2.086   1_554  S
C417        C420   1.454       .  S
C417        H451   1.081       .  S
C417        N445   1.340       .  A
N418       C1126   1.348       .  A
C420       N1167   1.347   1_455  A
N422        C448   1.342       .  A
N422       Co438   2.087       .  S
N423        C437   1.340       .  A
N423       N1127   1.321   1_455  A
N423       Co647   2.079   1_554  S
N424        N452   1.325       .  A
N424       Co442   2.085       .  S
H425        C448   1.081       .  S
H426        C443   1.081       .  S
N428       N1136   1.321       .  A
N428       Co684   2.092   1_554  S
N429        N441   1.325       .  A
N429       N1171   1.321       .  A
N429       Co438   2.083       .  S
C430        C444   1.454       .  S
C431        H435   1.081       .  S
N432        C443   1.343       .  A
N432       N1140   1.321       .  A
N432       Co442   2.091       .  S
C436        N452   1.348       .  A
Co438       N522   2.084       .  S
Co438       N537   2.083       .  S
Co438      Cl812   2.453   1_565  S
N439        C450   1.347       .  A
N441       C1146   1.348       .  A
Co442       N530   2.083       .  S
Co442       N549   2.089       .  S
Co442     Cl1175   2.454       .  S
C443       C1141   1.457       .  S
N445       N1155   1.321   1_455  A
Cl449      Co801   2.454   1_455  S
Cl449     Co1168   2.455   1_455  S
C453        C454   1.403   1_455  A
C453        C458   1.402       .  A
C453        H460   1.084       .  S
C454        C455   1.413       .  A
C455        C456   1.403       .  A
C455       C1188   1.507       .  S
C456        C457   1.403   1_655  A
C456       H1187   1.084       .  S
C457        C458   1.413       .  A
C458        C459   1.507       .  S
C459        H463   1.111       .  S
C459        H464   1.110       .  S
C459       H1191   1.109       .  S
H461       C1182   1.084       .  S
C462       C1181   1.506       .  S
C462       H1192   1.110       .  S
C462        H467   1.110       .  S
C462        H468   1.111       .  S
H465       C1185   1.110       .  S
H466       C1188   1.109       .  S
C469        C470   1.402       .  A
C469        C474   1.404       .  A
C469        H476   1.084       .  S
C471        C472   1.406       .  A
C471        C478   1.507       .  S
C472        H477   1.084       .  S
C473        C474   1.411       .  A
C474        C475   1.506       .  S
C475        H479   1.111       .  S
C475        H480   1.110       .  S
C475        H481   1.110       .  S
C478        H482   1.110       .  S
C478        H483   1.108       .  S
C478        H484   1.111       .  S
C485        C486   1.404       .  A
C485        C490   1.405       .  A
C485        C594   1.482       .  S
C486        H491   1.084       .  S
C487        C488   1.402       .  A
C487        C551   1.469       .  S
C488        C489   1.401       .  A
C488        H492   1.084       .  S
C489        C561   1.466       .  S
C490        H493   1.084       .  S
C494        C495   1.406       .  A
C494        C499   1.404       .  A
C494        C591   1.482       .  S
C495        H500   1.084       .  S
C496        C497   1.400       .  A
C496        C557   1.465       .  S
C497        C498   1.400       .  A
C497        H501   1.084       .  S
C498        C571   1.464       .  S
C499        H502   1.084       .  S
C503        C504   1.405       .  A
C503        C508   1.404       .  A
C503        C578   1.480       .  S
C504        C505   1.403       .  A
C504        H509   1.084       .  S
C505        C506   1.400       .  A
C505        C529   1.467   1_455  S
C506        C507   1.400       .  A
C506        H510   1.084   1_455  S
C507        C508   1.401       .  A
C507        C536   1.463       .  S
C508        H511   1.084       .  S
C512        C513   1.405       .  A
C512        C517   1.404   1_455  A
C512        C575   1.480       .  S
C513        C514   1.403       .  A
C513        H518   1.084       .  S
C514        C515   1.401       .  A
C514        C541   1.466       .  S
C515        C516   1.401       .  A
C515        H519   1.084       .  S
C516        C517   1.401   1_455  A
C516        C521   1.465       .  S
C517        H520   1.084       .  S
C521        C558   1.454       .  S
C521       N1265   1.349   1_455  A
N522        N539   1.324       .  A
N522       N1270   1.321       .  A
C523        C561   1.455       .  S
C523        H568   1.081       .  S
C523        N548   1.342       .  A
H524        C565   1.081       .  S
C525       C1255   1.456       .  S
C525        H554   1.081       .  S
C525        N549   1.342       .  A
Co526       N665   2.086       .  S
Co526       N655   2.084       .  S
Co526       N566   2.086       .  S
Co526       N542   2.085       .  S
N527        C565   1.341       .  A
Co528       N648   2.083       .  S
Co528       N652   2.082       .  S
Co528       N548   2.085       .  S
Co528       N535   2.084       .  S
Co528      Cl570   2.453       .  S
C529       C1251   1.456       .  S
C529        N567   1.348   1_655  A
N530        N560   1.324       .  A
N531       N1275   1.321   1_455  A
N531        N567   1.326       .  A
N532        N542   1.325       .  A
H533        C558   1.081       .  S
N534        N555   1.326       .  A
N535       N1279   1.320   1_455  A
N535        N540   1.325       .  A
C536       C1290   1.455   1_455  S
C536        N540   1.348       .  A
N537        C552   1.341       .  A
C538        C541   1.455       .  S
C538        H572   1.081       .  S
C538        N566   1.342       .  A
N539       C1247   1.347       .  A
C541       N1288   1.348   1_455  A
N543        C569   1.342       .  A
N543       Co559   2.088       .  S
N544        C558   1.340       .  A
N544       N1248   1.321   1_455  A
N545        N573   1.325       .  A
N545       Co563   2.084       .  S
H546        C569   1.081       .  S
H547        C564   1.081       .  S
N549       N1257   1.321       .  A
N550        N562   1.325       .  A
N550       N1292   1.321       .  A
N550       Co559   2.082       .  S
C551        C565   1.455       .  S
C552        H556   1.081       .  S
N553        C564   1.343       .  A
N553       N1261   1.321       .  A
N553       Co563   2.091       .  S
C557        N573   1.348       .  A
Co559       N643   2.086       .  S
Co559       N658   2.084       .  S
Co559      Cl933   2.456       .  S
N560        C571   1.347       .  A
N562       C1267   1.348       .  A
Co563       N651   2.086       .  S
Co563       N670   2.085       .  S
Co563     Cl1296   2.454       .  S
C564       C1262   1.458       .  S
N566       N1276   1.321   1_455  A
Cl570      Co922   2.454   1_455  S
Cl570     Co1289   2.453   1_455  S
C574        C575   1.403       .  A
C574        C579   1.406       .  A
C574        H581   1.084       .  S
C575        C576   1.413   1_455  A
C576        C577   1.404       .  A
C576       C1309   1.507       .  S
C577        C578   1.402   1_655  A
C577       H1308   1.084       .  S
C578        C579   1.413       .  A
C579        C580   1.506       .  S
C580        H584   1.111       .  S
C580        H585   1.110       .  S
C580       H1312   1.110       .  S
H582       C1303   1.084       .  S
C583       C1302   1.507       .  S
C583       H1313   1.109       .  S
C583        H588   1.110       .  S
C583        H589   1.111       .  S
H586       C1306   1.109       .  S
H587       C1309   1.109       .  S
C590        C591   1.404       .  A
C590        C595   1.405       .  A
C590        H597   1.084       .  S
C592        C593   1.406       .  A
C592        C599   1.506       .  S
C593        H598   1.084       .  S
C594        C595   1.414       .  A
C595        C596   1.508       .  S
C596        H600   1.111       .  S
C596        H601   1.108       .  S
C596        H602   1.110       .  S
C599        H603   1.110       .  S
C599        H604   1.110       .  S
C599        H605   1.111       .  S
C606        C607   1.403       .  A
C606        C611   1.403       .  A
C606        C715   1.477       .  S
C607        H612   1.084       .  S
C608        C609   1.399       .  A
C608        C672   1.463       .  S
C609        C610   1.399       .  A
C609        H613   1.085       .  S
C610        C682   1.462       .  S
C611        H614   1.084       .  S
C615        C616   1.404       .  A
C615        C620   1.403       .  A
C615        C712   1.478       .  S
C616        H621   1.084       .  S
C617        C618   1.401       .  A
C617        C678   1.464       .  S
C618        C619   1.401       .  A
C618        H622   1.084       .  S
C619        C692   1.465       .  S
C620        H623   1.084       .  S
C624        C625   1.404       .  A
C624        C629   1.405       .  A
C624        C699   1.479   1_455  S
C625        C626   1.401       .  A
C625        H630   1.084   1_455  S
C626        C627   1.399       .  A
C626        C650   1.462   1_455  S
C627        C628   1.400       .  A
C627        H631   1.085       .  S
C628        C629   1.402       .  A
C628        C657   1.464       .  S
C629        H632   1.084       .  S
C633        C634   1.405       .  A
C633        C638   1.404       .  A
C633        C696   1.480       .  S
C634        C635   1.402       .  A
C634        H639   1.084       .  S
C635        C636   1.401   1_655  A
C635        C662   1.466   1_655  S
C636        C637   1.401       .  A
C636        H640   1.084       .  S
C637        C638   1.402   1_455  A
C637        C642   1.466       .  S
C638        H641   1.084       .  S
C642        C679   1.456       .  S
C642       N1386   1.348   1_455  A
N643        N660   1.325       .  A
N643       N1391   1.321       .  A
C644        C682   1.456       .  S
C644        H689   1.081       .  S
C644        N669   1.342       .  A
H645        C686   1.081       .  S
C646       C1376   1.454       .  S
C646        H675   1.081       .  S
C646        N670   1.341       .  A
Co647       N687   2.091       .  S
Co647       N663   2.083       .  S
N648        C686   1.340       .  A
Co649       N669   2.085       .  S
Co649       N656   2.087       .  S
Co649      Cl691   2.454       .  S
C650       C1372   1.455       .  S
C650        N688   1.347   1_655  A
N651        N681   1.325       .  A
N652       N1396   1.321   1_455  A
N652        N688   1.324       .  A
N653        N663   1.325       .  A
H654        C679   1.081       .  S
N655        N676   1.325       .  A
N656       N1400   1.320   1_455  A
N656        N661   1.326       .  A
C657       C1411   1.454   1_455  S
C657        N661   1.349       .  A
N658        C673   1.341       .  A
C659        C662   1.456       .  S
C659        H693   1.081       .  S
C659        N687   1.342       .  A
N660       C1368   1.348       .  A
C662       N1409   1.348   1_455  A
N664        C690   1.340       .  A
N664       Co680   2.084       .  S
N665        C679   1.342       .  A
N665       N1369   1.320   1_455  A
N666        N694   1.325       .  A
N666       Co684   2.085       .  S
H667        C690   1.081       .  S
H668        C685   1.081       .  S
N670       N1378   1.321       .  A
N671        N683   1.325       .  A
N671       N1413   1.321       .  A
N671       Co680   2.084       .  S
C672        C686   1.454       .  S
C673        H677   1.081       .  S
N674        C685   1.343       .  A
N674       N1382   1.320       .  A
N674       Co684   2.090       .  S
C678        N694   1.348       .  A
Co680     Cl1054   2.455   1_565  S
N681        C692   1.348       .  A
N683       C1388   1.347       .  A
Co684     Cl1417   2.453       .  S
C685       C1383   1.458       .  S
N687       N1397   1.321   1_455  A
Cl691     Co1043   2.453   1_455  S
Cl691     Co1410   2.454   1_455  S
C695        C696   1.403   1_455  A
C695        C700   1.404       .  A
C695        H702   1.084       .  S
C696        C697   1.413       .  A
C697        C698   1.405       .  A
C697       C1430   1.506       .  S
C698        C699   1.403       .  A
C698       H1429   1.084       .  S
C699        C700   1.412   1_655  A
C700        C701   1.507       .  S
C701        H705   1.111       .  S
C701        H706   1.109       .  S
C701       H1433   1.110       .  S
H703       C1424   1.084       .  S
C704       C1423   1.506       .  S
C704       H1434   1.110       .  S
C704        H709   1.109       .  S
C704        H710   1.111       .  S
H707       C1427   1.110       .  S
H708       C1430   1.110       .  S
C711        C712   1.403       .  A
C711        C716   1.402       .  A
C711        H718   1.084       .  S
C713        C714   1.403       .  A
C713        C720   1.507       .  S
C714        H719   1.084       .  S
C715        C716   1.413       .  A
C716        C717   1.508       .  S
C717        H721   1.111       .  S
C717        H722   1.109       .  S
C717        H723   1.110       .  S
C720        H724   1.110       .  S
C720        H725   1.109       .  S
C720        H726   1.111       .  S
C727        C728   1.405       .  A
C727        C732   1.406       .  A
C727        C836   1.484       .  S
C728       C1092   1.401       .  A
C728        H733   1.083       .  S
C729       C1091   1.401       .  A
C729        C730   1.401       .  A
C729        C793   1.464       .  S
C730        C731   1.400       .  A
C730        H734   1.084       .  S
C731       C1095   1.399       .  A
C731        C803   1.462       .  S
C732       C1094   1.401       .  A
C732        H735   1.084       .  S
C736        C737   1.407       .  A
C736        C741   1.405       .  A
C736        C833   1.485       .  S
C737       C1101   1.403       .  A
C737        H742   1.083       .  S
C738       C1100   1.401       .  A
C738        C739   1.399       .  A
C738        C799   1.462       .  S
C739        C740   1.398       .  A
C739        H743   1.085   1_545  S
C740       C1104   1.399       .  A
C740        C813   1.461       .  S
C741       C1103   1.401       .  A
C741        H744   1.084       .  S
C745        C746   1.406       .  A
C745        C750   1.406       .  A
C745        C820   1.485       .  S
C746        C747   1.402       .  A
C746        H751   1.084       .  S
C747        C748   1.401       .  A
C747        C771   1.468       .  S
C748        C749   1.401       .  A
C748        H752   1.084       .  S
C749        C750   1.402       .  A
C749        C778   1.467       .  S
C750        H753   1.084       .  S
C754        C755   1.406       .  A
C754        C759   1.406       .  A
C754        C817   1.484       .  S
C755        C756   1.403       .  A
C755        H760   1.084       .  S
C756        C757   1.401       .  A
C756        C783   1.467       .  S
C757        C758   1.401       .  A
C757        H761   1.084       .  S
C758        C759   1.402       .  A
C758        C763   1.468       .  S
C759        H762   1.084       .  S
C763        C800   1.457       .  S
N764        N781   1.326       .  A
N764      Co1043   2.086   1_554  S
C765        C803   1.453       .  S
C765        H810   1.081       .  S
C765        N790   1.340       .  A
H766        C807   1.081       .  S
C767        H796   1.081       .  S
C767        N791   1.341       .  A
Co768       N907   2.093       .  S
Co768       N897   2.086       .  S
Co768       N808   2.091       .  S
Co768       N784   2.087       .  S
Co768     Cl1175   2.454       .  S
N769        C807   1.341       .  A
N769       N1139   1.321   1_545  A
N769      Co1012   2.085   1_554  S
Co770       N890   2.090       .  S
Co770       N894   2.084       .  S
Co770       N790   2.083       .  S
Co770       N777   2.088       .  S
Co770      Cl812   2.455       .  S
C771        N809   1.347       .  A
N772       N1142   1.321   1_545  A
N772        N802   1.325       .  A
N772      Co1047   2.085   1_554  S
N773        N809   1.325       .  A
N773      Co1012   2.085   1_554  S
N774       C1166   1.348       .  A
N774        N784   1.325       .  A
H775        C800   1.081       .  S
N776       N1132   1.321       .  A
N776        N797   1.325       .  A
N776      Co1010   2.085   1_554  S
N777        N782   1.326       .  A
C778        N782   1.348       .  A
N779        C794   1.342       .  A
N779       N1135   1.320       .  A
N779      Co1043   2.085   1_554  S
C780        C783   1.457       .  S
C780        H814   1.081       .  S
C780        N808   1.342       .  A
N784       N1153   1.321       .  A
N785        C811   1.342       .  A
N785       N1150   1.321       .  A
N785       Co801   2.088       .  S
N786        C800   1.343       .  A
N786      Co1010   2.091   1_554  S
N787       N1148   1.321   1_545  A
N787        N815   1.325       .  A
N787       Co805   2.087       .  S
H788        C811   1.081       .  S
H789        C806   1.081       .  S
N790       N1147   1.321   1_545  A
N791      Co1047   2.087   1_554  S
N792        N804   1.325       .  A
N792       Co801   2.084       .  S
C793        C807   1.454       .  S
C793       N1160   1.348   1_545  A
C794       C1176   1.456       .  S
C794        H798   1.081       .  S
N795        C806   1.342       .  A
N795       Co805   2.090       .  S
N797       C1156   1.348       .  A
C799       C1174   1.453   1_545  S
C799        N815   1.348       .  A
Co801       N885   2.088       .  S
Co801       N900   2.084       .  S
N802        C813   1.348       .  A
C803       N1137   1.347   1_545  A
Co805       N893   2.087       .  S
Co805       N912   2.085       .  S
C811       C1162   1.455       .  S
Cl812     Co1131   2.454   1_545  S
C813       C1157   1.453   1_545  S
C816        C817   1.404       .  A
C816        C821   1.406       .  A
C816        H823   1.084       .  S
C817        C818   1.414       .  A
C818        C819   1.405       .  A
C819        C820   1.404       .  A
C820        C821   1.414       .  A
C821        C822   1.507       .  S
C822        H826   1.111       .  S
C822        H827   1.110       .  S
C825        H830   1.110       .  S
C825        H831   1.111       .  S
C832        C833   1.404       .  A
C832        C837   1.405       .  A
C832        H839   1.084       .  S
C833       C1197   1.414       .  A
C834       C1196   1.413       .  A
C834        C835   1.404       .  A
C834        C841   1.507       .  S
C835       C1199   1.403       .  A
C835        H840   1.084       .  S
C836       C1198   1.404       .  A
C836        C837   1.414       .  A
C837        C838   1.508       .  S
C838        H842   1.111       .  S
C838        H843   1.108       .  S
C838        H844   1.110       .  S
C841        H845   1.110       .  S
C841        H846   1.108       .  S
C841        H847   1.111       .  S
C848        C849   1.405       .  A
C848        C853   1.404       .  A
C848        C957   1.481       .  S
C849       C1213   1.401       .  A
C849        H854   1.084       .  S
C850       C1212   1.403       .  A
C850        C851   1.401       .  A
C850        C914   1.468       .  S
C851        C852   1.401       .  A
C851        H855   1.084       .  S
C852       C1216   1.401       .  A
C852        C924   1.463       .  S
C853       C1215   1.401       .  A
C853        H856   1.084       .  S
C857        C858   1.405       .  A
C857        C862   1.404       .  A
C857        C954   1.480       .  S
C858       C1222   1.401       .  A
C858        H863   1.084       .  S
C859       C1221   1.403       .  A
C859        C860   1.401       .  A
C859        C920   1.466       .  S
C860        C861   1.401       .  A
C860        H864   1.084       .  S
C861       C1225   1.401       .  A
C861        C934   1.464       .  S
C862       C1224   1.400       .  A
C862        H865   1.084       .  S
C866        C867   1.405       .  A
C866        C871   1.408       .  A
C866        C941   1.486       .  S
C867        C868   1.402       .  A
C867        H872   1.084       .  S
C868        C869   1.401       .  A
C868        C892   1.466       .  S
C869        C870   1.401       .  A
C869        H873   1.084       .  S
C870        C871   1.405       .  A
C870        C899   1.470       .  S
C871        H874   1.084       .  S
C875        C876   1.406       .  A
C875        C880   1.406       .  A
C875        C938   1.486       .  S
C876        C877   1.403       .  A
C876        H881   1.084       .  S
C877        C878   1.400       .  A
C877        C904   1.467       .  S
C878        C879   1.400       .  A
C878        H882   1.084       .  S
C879        C880   1.404       .  A
C879        C884   1.467       .  S
C880        H883   1.084       .  S
C884        C921   1.458       .  S
N885        N902   1.326       .  A
C886        C924   1.455       .  S
C886        H931   1.081       .  S
C886        N911   1.341       .  A
H887        C928   1.081       .  S
C888        H917   1.081       .  S
C888        N912   1.341       .  A
Co889      N1028   2.095       .  S
Co889      N1018   2.086       .  S
Co889       N929   2.090       .  S
Co889       N905   2.090       .  S
Co889     Cl1296   2.454       .  S
N890        C928   1.342       .  A
N890       N1260   1.321   1_545  A
Co891      N1011   2.087       .  S
Co891      N1015   2.087       .  S
Co891       N911   2.087       .  S
Co891       N898   2.087       .  S
Co891      Cl933   2.454   1_545  S
C892        N930   1.348       .  A
N893       N1263   1.321   1_545  A
N893        N923   1.325       .  A
N894        N930   1.325       .  A
N895       C1287   1.349       .  A
N895        N905   1.326       .  A
H896        C921   1.081       .  S
N897       N1253   1.321       .  A
N897        N918   1.325       .  A
N898        N903   1.325       .  A
C899        N903   1.348       .  A
N900        C915   1.341       .  A
N900       N1256   1.321       .  A
C901        C904   1.457       .  S
C901        H935   1.081       .  S
C901        N929   1.342       .  A
N905       N1274   1.321       .  A
N906        C932   1.340       .  A
N906       N1271   1.321       .  A
N906       Co922   2.082       .  S
N907        C921   1.343       .  A
N908       N1269   1.321   1_545  A
N908        N936   1.327       .  A
N908       Co926   2.089       .  S
H909        C932   1.081       .  S
H910        C927   1.081       .  S
N911       N1268   1.321   1_545  A
N913        N925   1.324       .  A
N913       Co922   2.084       .  S
C914        C928   1.456       .  S
C914       N1281   1.349   1_545  A
C915       C1297   1.455       .  S
C915        H919   1.081       .  S
N916        C927   1.340       .  A
N916       Co926   2.085       .  S
N918       C1277   1.348       .  A
C920       C1295   1.453   1_545  S
C920        N936   1.349       .  A
Co922      N1006   2.083       .  S
Co922      N1021   2.089       .  S
N923        C934   1.348       .  A
C924       N1258   1.347   1_545  A
Co926      N1014   2.092       .  S
Co926      N1033   2.082       .  S
C932       C1283   1.453       .  S
Cl933     Co1252   2.454       .  S
C934       C1278   1.455   1_545  S
C937        C938   1.404       .  A
C937        C942   1.406       .  A
C937        H944   1.084       .  S
C938        C939   1.414       .  A
C939        C940   1.407       .  A
C940        C941   1.404       .  A
C941        C942   1.413       .  A
C942        C943   1.507       .  S
C943        H947   1.111       .  S
C943        H948   1.110       .  S
C946        H951   1.108       .  S
C946        H952   1.111       .  S
C953        C954   1.403       .  A
C953        C958   1.404       .  A
C953        H960   1.084       .  S
C954       C1318   1.413       .  A
C955       C1317   1.411       .  A
C955        C956   1.404       .  A
C955        C962   1.506       .  S
C956       C1320   1.402       .  A
C956        H961   1.084       .  S
C957       C1319   1.403       .  A
C957        C958   1.413       .  A
C958        C959   1.507       .  S
C959        H963   1.111       .  S
C959        H964   1.109       .  S
C959        H965   1.110       .  S
C962        H966   1.110       .  S
C962        H967   1.110       .  S
C962        H968   1.111       .  S
C969        C970   1.406       .  A
C969        C974   1.405       .  A
C969       C1078   1.484       .  S
C970       C1334   1.402       .  A
C970        H975   1.084       .  S
C971       C1333   1.404       .  A
C971        C972   1.400       .  A
C971       C1035   1.466       .  S
C972        C973   1.400       .  A
C972        H976   1.085       .  S
C973       C1337   1.402       .  A
C973       C1045   1.465       .  S
C974       C1336   1.403       .  A
C974        H977   1.084       .  S
C978        C979   1.406       .  A
C978        C983   1.405       .  A
C978       C1075   1.484       .  S
C979       C1343   1.402       .  A
C979        H984   1.084       .  S
C980       C1342   1.403       .  A
C980        C981   1.403       .  A
C980       C1041   1.469       .  S
C981        C982   1.402       .  A
C981        H985   1.084       .  S
C982       C1346   1.403       .  A
C982       C1055   1.469       .  S
C983       C1345   1.402       .  A
C983        H986   1.084       .  S
C987        C988   1.405       .  A
C987        C992   1.405       .  A
C987       C1062   1.481       .  S
C988        C989   1.403       .  A
C988        H993   1.084       .  S
C989        C990   1.401       .  A
C989       C1013   1.468       .  S
C990        C991   1.401       .  A
C990        H994   1.084       .  S
C991        C992   1.403       .  A
C991       C1020   1.468       .  S
C992        H995   1.084       .  S
C996        C997   1.404       .  A
C996       C1001   1.404       .  A
C996       C1059   1.481       .  S
C997        C998   1.403       .  A
C997       H1002   1.084       .  S
C998        C999   1.402       .  A
C998       C1025   1.469       .  S
C999       C1000   1.402       .  A
C999       H1003   1.084       .  S
C1000      C1001   1.403       .  A
C1000      C1005   1.469       .  S
C1001      H1004   1.084       .  S
C1005      C1042   1.459       .  S
N1006      N1023   1.325       .  A
C1007      C1045   1.456       .  S
C1007      H1052   1.081       .  S
C1007      N1032   1.342       .  A
H1008      C1049   1.081       .  S
C1009      H1038   1.081       .  S
C1009      N1033   1.340       .  A
Co1010     N1050   2.092       .  S
Co1010     N1026   2.084       .  S
Co1010    Cl1417   2.453       .  S
N1011      C1049   1.341       .  A
N1011      N1381   1.321   1_545  A
Co1012     N1032   2.088       .  S
Co1012     N1019   2.085       .  S
Co1012    Cl1054   2.456       .  S
C1013      N1051   1.349       .  A
N1014      N1384   1.321   1_545  A
N1014      N1044   1.327       .  A
N1015      N1051   1.326       .  A
N1016      C1408   1.347       .  A
N1016      N1026   1.324       .  A
H1017      C1042   1.081       .  S
N1018      N1374   1.321       .  A
N1018      N1039   1.325       .  A
N1019      N1024   1.325       .  A
C1020      N1024   1.348       .  A
N1021      C1036   1.342       .  A
N1021      N1377   1.321       .  A
C1022      C1025   1.458       .  S
C1022      H1056   1.081       .  S
C1022      N1050   1.343       .  A
N1026      N1395   1.321       .  A
N1027      C1053   1.340       .  A
N1027      N1392   1.321       .  A
N1027     Co1043   2.084       .  S
N1028      C1042   1.344       .  A
N1029      N1390   1.321   1_545  A
N1029      N1057   1.326       .  A
N1029     Co1047   2.091       .  S
H1030      C1053   1.081       .  S
H1031      C1048   1.081       .  S
N1032      N1389   1.321   1_545  A
N1034      N1046   1.325       .  A
N1034     Co1043   2.084       .  S
C1035      C1049   1.455       .  S
C1035      N1402   1.349   1_545  A
C1036      C1418   1.457       .  S
C1036      H1040   1.081       .  S
N1037      C1048   1.340       .  A
N1037     Co1047   2.083       .  S
N1039      C1398   1.348       .  A
C1041      C1416   1.456   1_545  S
C1041      N1057   1.349       .  A
N1044      C1055   1.350       .  A
C1045      N1379   1.347   1_545  A
C1053      C1404   1.453       .  S
Cl1054    Co1373   2.452   1_545  S
C1055      C1399   1.455   1_545  S
C1058      C1059   1.402       .  A
C1058      C1063   1.405       .  A
C1058      H1065   1.084       .  S
C1059      C1060   1.412       .  A
C1060      C1061   1.407       .  A
C1061      C1062   1.404       .  A
C1062      C1063   1.412       .  A
C1063      C1064   1.506       .  S
C1064      H1068   1.111       .  S
C1064      H1069   1.110       .  S
C1067      H1072   1.110       .  S
C1067      H1073   1.111       .  S
C1074      C1075   1.404       .  A
C1074      C1079   1.406       .  A
C1074      H1081   1.084       .  S
C1075      C1439   1.414       .  A
C1076      C1438   1.412       .  A
C1076      C1077   1.406       .  A
C1076      C1083   1.506       .  S
C1077      C1441   1.403       .  A
C1077      H1082   1.084       .  S
C1078      C1440   1.403       .  A
C1078      C1079   1.414       .  A
C1079      C1080   1.507       .  S
C1080      H1084   1.111       .  S
C1080      H1085   1.109       .  S
C1080      H1086   1.110       .  S
C1083      H1087   1.110       .  S
C1083      H1088   1.110       .  S
C1083      H1089   1.111       .  S
C1090      C1091   1.404       .  A
C1090      C1095   1.403       .  A
C1090      C1199   1.479       .  S
C1091      H1096   1.084       .  S
C1092      C1093   1.400       .  A
C1092      C1156   1.464       .  S
C1093      C1094   1.400       .  A
C1093      H1097   1.084       .  S
C1094      C1166   1.465       .  S
C1095      H1098   1.084       .  S
C1099      C1100   1.405       .  A
C1099      C1104   1.404       .  A
C1099      C1196   1.479       .  S
C1100      H1105   1.084       .  S
C1101      C1102   1.401       .  A
C1101      C1162   1.468       .  S
C1102      C1103   1.400       .  A
C1102      H1106   1.084       .  S
C1103      C1176   1.465       .  S
C1104      H1107   1.084       .  S
C1108      C1109   1.404       .  A
C1108      C1113   1.405       .  A
C1108      C1183   1.480       .  S
C1109      C1110   1.402       .  A
C1109      H1114   1.084       .  S
C1110      C1111   1.401       .  A
C1110      C1134   1.467       .  S
C1111      C1112   1.402       .  A
C1111      H1115   1.084       .  S
C1112      C1113   1.403       .  A
C1112      C1141   1.468       .  S
C1113      H1116   1.084       .  S
C1117      C1118   1.404       .  A
C1117      C1122   1.404       .  A
C1117      C1180   1.479       .  S
C1118      C1119   1.401       .  A
C1118      H1123   1.084       .  S
C1119      C1120   1.401       .  A
C1119      C1146   1.465       .  S
C1120      C1121   1.401       .  A
C1120      H1124   1.084       .  S
C1121      C1122   1.403       .  A
C1121      C1126   1.466       .  S
C1122      H1125   1.084       .  S
C1126      C1163   1.456       .  S
N1127      N1144   1.325       .  A
N1127     Co1406   2.086   1_554  S
C1128      C1166   1.456       .  S
C1128      H1173   1.081       .  S
C1128      N1153   1.342       .  A
H1129      C1170   1.081       .  S
C1130      H1159   1.081       .  S
C1130      N1154   1.341       .  A
Co1131     N1270   2.086       .  S
Co1131     N1260   2.089       .  S
Co1131     N1171   2.089       .  S
Co1131     N1147   2.083       .  S
N1132      C1170   1.341       .  A
N1132     Co1375   2.084   1_554  S
Co1133     N1253   2.088       .  S
Co1133     N1257   2.080       .  S
Co1133     N1153   2.087       .  S
Co1133     N1140   2.086       .  S
Co1133    Cl1175   2.455       .  S
C1134      N1172   1.348       .  A
N1135      N1165   1.325       .  A
N1135     Co1410   2.083   1_554  S
N1136      N1172   1.325       .  A
N1136     Co1375   2.085   1_554  S
N1137      N1147   1.325       .  A
H1138      C1163   1.081       .  S
N1139      N1160   1.325       .  A
N1139     Co1373   2.085   1_554  S
N1140      N1145   1.325       .  A
C1141      N1145   1.348       .  A
N1142      C1157   1.340       .  A
N1142     Co1406   2.081   1_554  S
C1143      C1146   1.456       .  S
C1143      H1177   1.081       .  S
C1143      N1171   1.342       .  A
N1148      C1174   1.340       .  A
N1148     Co1164   2.082       .  S
N1149      C1163   1.342       .  A
N1149     Co1373   2.088   1_554  S
N1150      N1178   1.326       .  A
N1150     Co1168   2.091       .  S
H1151      C1174   1.081       .  S
H1152      C1169   1.081       .  S
N1154     Co1410   2.088   1_554  S
N1155      N1167   1.325       .  A
N1155     Co1164   2.085       .  S
C1156      C1170   1.454       .  S
C1157      H1161   1.081       .  S
N1158      C1169   1.341       .  A
N1158     Co1168   2.082       .  S
C1162      N1178   1.349       .  A
Co1164     N1248   2.086       .  S
Co1164     N1263   2.083       .  S
N1165      C1176   1.347       .  A
Co1168     N1256   2.082       .  S
Co1168     N1275   2.090       .  S
C1179      C1180   1.403       .  A
C1179      C1184   1.406       .  A
C1179      H1186   1.084       .  S
C1180      C1181   1.412       .  A
C1181      C1182   1.405       .  A
C1182      C1183   1.403       .  A
C1183      C1184   1.412       .  A
C1184      C1185   1.506       .  S
C1185      H1189   1.111       .  S
C1185      H1190   1.110       .  S
C1188      H1193   1.110       .  S
C1188      H1194   1.111       .  S
C1195      C1196   1.403   1_565  A
C1195      C1200   1.402       .  A
C1195      H1202   1.084       .  S
C1197      C1198   1.405       .  A
C1197      C1204   1.507       .  S
C1198      H1203   1.084       .  S
C1199      C1200   1.413   1_545  A
C1200      C1201   1.508       .  S
C1201      H1205   1.111       .  S
C1201      H1206   1.108       .  S
C1201      H1207   1.110       .  S
C1204      H1208   1.110       .  S
C1204      H1209   1.108       .  S
C1204      H1210   1.111       .  S
C1211      C1212   1.405       .  A
C1211      C1216   1.402       .  A
C1211      C1320   1.478       .  S
C1212      H1217   1.084       .  S
C1213      C1214   1.402       .  A
C1213      C1277   1.466       .  S
C1214      C1215   1.402       .  A
C1214      H1218   1.084       .  S
C1215      C1287   1.467       .  S
C1216      H1219   1.084       .  S
C1220      C1221   1.404       .  A
C1220      C1225   1.403       .  A
C1220      C1317   1.477       .  S
C1221      H1226   1.084       .  S
C1222      C1223   1.400       .  A
C1222      C1283   1.463       .  S
C1223      C1224   1.399       .  A
C1223      H1227   1.085       .  S
C1224      C1297   1.462       .  S
C1225      H1228   1.084       .  S
C1229      C1230   1.402       .  A
C1229      C1234   1.404       .  A
C1229      C1304   1.477       .  S
C1230      C1231   1.400       .  A
C1230      H1235   1.084       .  S
C1231      C1232   1.401       .  A
C1231      C1255   1.463       .  S
C1232      C1233   1.401       .  A
C1232      H1236   1.084       .  S
C1233      C1234   1.402       .  A
C1233      C1262   1.466       .  S
C1234      H1237   1.084       .  S
C1238      C1239   1.403       .  A
C1238      C1243   1.403       .  A
C1238      C1301   1.477       .  S
C1239      C1240   1.400       .  A
C1239      H1244   1.084       .  S
C1240      C1241   1.401       .  A
C1240      C1267   1.464       .  S
C1241      C1242   1.401       .  A
C1241      H1245   1.084       .  S
C1242      C1243   1.401       .  A
C1242      C1247   1.464       .  S
C1243      H1246   1.084       .  S
C1247      C1284   1.456       .  S
N1248      N1265   1.326       .  A
C1249      C1287   1.455       .  S
C1249      H1294   1.081       .  S
C1249      N1274   1.342       .  A
H1250      C1291   1.081       .  S
C1251      H1280   1.081       .  S
C1251      N1275   1.342       .  A
Co1252     N1391   2.087       .  S
Co1252     N1381   2.087       .  S
Co1252     N1292   2.088       .  S
Co1252     N1268   2.083       .  S
N1253      C1291   1.342       .  A
Co1254     N1374   2.086       .  S
Co1254     N1378   2.083       .  S
Co1254     N1274   2.087       .  S
Co1254     N1261   2.082       .  S
Co1254    Cl1296   2.455       .  S
C1255      N1293   1.346       .  A
N1256      N1286   1.324       .  A
N1257      N1293   1.324       .  A
N1258      N1268   1.325       .  A
H1259      C1284   1.081       .  S
N1260      N1281   1.326       .  A
N1261      N1266   1.324       .  A
C1262      N1266   1.347       .  A
N1263      C1278   1.341       .  A
C1264      C1267   1.455       .  S
C1264      H1298   1.081       .  S
C1264      N1292   1.341       .  A
N1269      C1295   1.340       .  A
N1269     Co1285   2.083       .  S
N1270      C1284   1.342       .  A
N1271      N1299   1.325       .  A
N1271     Co1289   2.086       .  S
H1272      C1295   1.081       .  S
H1273      C1290   1.081       .  S
N1276      N1288   1.326       .  A
N1276     Co1285   2.089       .  S
C1277      C1291   1.456       .  S
C1278      H1282   1.081       .  S
N1279      C1290   1.340       .  A
N1279     Co1289   2.084       .  S
C1283      N1299   1.348       .  A
Co1285     N1369   2.086       .  S
Co1285     N1384   2.087       .  S
N1286      C1297   1.347       .  A
Co1289     N1377   2.083       .  S
Co1289     N1396   2.086       .  S
C1300      C1301   1.403       .  A
C1300      C1305   1.404       .  A
C1300      H1307   1.084       .  S
C1301      C1302   1.412       .  A
C1302      C1303   1.403       .  A
C1303      C1304   1.403       .  A
C1304      C1305   1.412       .  A
C1305      C1306   1.506       .  S
C1306      H1310   1.111       .  S
C1306      H1311   1.110       .  S
C1309      H1314   1.110       .  S
C1309      H1315   1.111       .  S
C1316      C1317   1.403   1_565  A
C1316      C1321   1.406       .  A
C1316      H1323   1.084       .  S
C1318      C1319   1.405       .  A
C1318      C1325   1.507       .  S
C1319      H1324   1.084       .  S
C1320      C1321   1.411   1_545  A
C1321      C1322   1.506       .  S
C1322      H1326   1.111       .  S
C1322      H1327   1.110       .  S
C1322      H1328   1.110       .  S
C1325      H1329   1.110       .  S
C1325      H1330   1.109       .  S
C1325      H1331   1.111       .  S
C1332      C1333   1.405       .  A
C1332      C1337   1.404       .  A
C1332      C1441   1.481       .  S
C1333      H1338   1.084       .  S
C1334      C1335   1.400       .  A
C1334      C1398   1.466       .  S
C1335      C1336   1.400       .  A
C1335      H1339   1.085       .  S
C1336      C1408   1.466       .  S
C1337      H1340   1.084       .  S
C1341      C1342   1.405       .  A
C1341      C1346   1.404       .  A
C1341      C1438   1.481       .  S
C1342      H1347   1.084       .  S
C1343      C1344   1.400       .  A
C1343      C1404   1.466       .  S
C1344      C1345   1.400       .  A
C1344      H1348   1.084       .  S
C1345      C1418   1.465       .  S
C1346      H1349   1.084       .  S
C1350      C1351   1.403       .  A
C1350      C1355   1.405       .  A
C1350      C1425   1.480       .  S
C1351      C1352   1.400       .  A
C1351      H1356   1.084       .  S
C1352      C1353   1.400       .  A
C1352      C1376   1.463       .  S
C1353      C1354   1.400       .  A
C1353      H1357   1.084       .  S
C1354      C1355   1.403       .  A
C1354      C1383   1.466       .  S
C1355      H1358   1.084       .  S
C1359      C1360   1.404       .  A
C1359      C1364   1.404       .  A
C1359      C1422   1.479       .  S
C1360      C1361   1.402       .  A
C1360      H1365   1.084       .  S
C1361      C1362   1.401       .  A
C1361      C1388   1.465       .  S
C1362      C1363   1.401       .  A
C1362      H1366   1.084       .  S
C1363      C1364   1.402       .  A
C1363      C1368   1.465       .  S
C1364      H1367   1.084       .  S
C1368      C1405   1.456       .  S
N1369      N1386   1.325       .  A
C1370      C1408   1.457       .  S
C1370      H1415   1.081       .  S
C1370      N1395   1.343       .  A
H1371      C1412   1.081       .  S
C1372      H1401   1.081       .  S
C1372      N1396   1.341       .  A
Co1373     N1413   2.088       .  S
Co1373     N1389   2.085       .  S
N1374      C1412   1.341       .  A
Co1375     N1395   2.090       .  S
Co1375     N1382   2.081       .  S
Co1375    Cl1417   2.455       .  S
C1376      N1414   1.348       .  A
N1377      N1407   1.324       .  A
N1378      N1414   1.325       .  A
N1379      N1389   1.325       .  A
H1380      C1405   1.081       .  S
N1381      N1402   1.326       .  A
N1382      N1387   1.324       .  A
C1383      N1387   1.347       .  A
N1384      C1399   1.341       .  A
C1385      C1388   1.456       .  S
C1385      H1419   1.081       .  S
C1385      N1413   1.342       .  A
N1390      C1416   1.342       .  A
N1390     Co1406   2.088       .  S
N1391      C1405   1.342       .  A
N1392      N1420   1.326       .  A
N1392     Co1410   2.091       .  S
H1393      C1416   1.081       .  S
H1394      C1411   1.081       .  S
N1397      N1409   1.325       .  A
N1397     Co1406   2.084       .  S
C1398      C1412   1.455       .  S
C1399      H1403   1.081       .  S
N1400      C1411   1.340       .  A
N1400     Co1410   2.084       .  S
C1404      N1420   1.350       .  A
N1407      C1418   1.347       .  A
C1421      C1422   1.403       .  A
C1421      C1426   1.405       .  A
C1421      H1428   1.084       .  S
C1422      C1423   1.412       .  A
C1423      C1424   1.404       .  A
C1424      C1425   1.403       .  A
C1425      C1426   1.413       .  A
C1426      C1427   1.507       .  S
C1427      H1431   1.111       .  S
C1427      H1432   1.109       .  S
C1430      H1435   1.109       .  S
C1430      H1436   1.111       .  S
C1437      C1438   1.403   1_565  A
C1437      C1442   1.406       .  A
C1437      H1444   1.084       .  S
C1439      C1440   1.405       .  A
C1439      C1446   1.507       .  S
C1440      H1445   1.084       .  S
C1441      C1442   1.412   1_545  A
C1442      C1443   1.506       .  S
C1443      H1447   1.111       .  S
C1443      H1448   1.110       .  S
C1443      H1449   1.110       .  S
C1446      H1450   1.110       .  S
C1446      H1451   1.108       .  S
C1446      H1452   1.111       .  S
