geometry optimzed in LAMMPS
_audit_creation_date              2020-11-30 
_audit_creation_method            'lammps2cif' 
_symmetry_space_group_name_H-M    'P1' 
_symmetry_Int_Tables_number       1 
_symmetry_cell_setting            triclinic 
loop_ 
_symmetry_equiv_pos_as_xyz 
  x,y,z 
_cell_length_a                    38.61399992 
_cell_length_b                    38.59927358611587 
_cell_length_c                    38.55655705471272 
_cell_angle_alpha                 89.42237104808466 
_cell_angle_beta                  90.4795070275404 
_cell_angle_gamma                 89.867267286785 
loop_ 
_atom_site_label 
_atom_site_type_symbol 
_atom_site_fract_x 
_atom_site_fract_y 
_atom_site_fract_z 
_atom_site_charge 
In1        In  0.86826047  0.77708126  0.44628428     1.36900
C2          C  0.82518095  0.72302057  0.44677464     0.77200
O3          O  0.87173478  0.76727582  0.38958806    -0.61200
O4          O  0.91618670  0.75611974  0.42041247    -0.52100
C5          C  0.85650057  0.84360389  0.43013991     0.69900
O6          O  0.83264464  0.82271969  0.43810727    -0.47000
C7          C  0.88896471  0.78622785  0.51150226     0.74600
O8          O  0.81586278  0.75321342  0.43779180    -0.58900
O9          O  0.90879209  0.77426948  0.48861710    -0.49000
O10         O  0.85576222  0.72127294  0.45832527    -0.55300
C11         C  0.90226177  0.75573827  0.39059961     0.84800
O12         O  0.88637860  0.83025259  0.43005973    -0.57200
O13         O  0.85840118  0.79200810  0.50123318    -0.60500
In14       In  0.08467002  0.13706183  0.31261186     1.36900
C15         C  0.08520907  0.18601053  0.26237718     0.77200
O16         O  0.14172928  0.12887927  0.30619460    -0.61200
O17         O  0.10858346  0.09254323  0.28244079    -0.52100
C18         C  0.10258937  0.14853664  0.37930534     0.69900
O19         O  0.09042789  0.17180184  0.35938472    -0.47000
C20         C  0.01913444  0.11420076  0.32017094     0.74600
O21         O  0.09529864  0.19137867  0.29302112    -0.58900
O22         O  0.04388465  0.09427509  0.31259845    -0.49000
O23         O  0.07285872  0.15616748  0.25808005    -0.55300
C24         C  0.13941115  0.10235650  0.28757212     0.84800
O25         O  0.10464429  0.11917438  0.36528888    -0.57200
O26         O  0.02811857  0.14534532  0.32361037    -0.60500
In27       In  0.17490661  0.18951783  0.58418224     1.36900
C28         C  0.14174183  0.21310454  0.63956889     0.77200
O29         O  0.15700551  0.13840723  0.60664347    -0.61200
O30         O  0.20779943  0.14076555  0.58675183    -0.52100
C31         C  0.15012720  0.18051849  0.51948999     0.69900
O32         O  0.13152060  0.19138328  0.54391305    -0.47000
C33         C  0.22132928  0.24171911  0.58567406     0.74600
O34         O  0.12859903  0.21472285  0.60939779    -0.58900
O35         O  0.22820082  0.21119744  0.59563322    -0.49000
O36         O  0.17088321  0.19835219  0.64109668    -0.55300
C37         C  0.18486973  0.12236542  0.60111220     0.84800
O38         O  0.18135992  0.17556274  0.52803162    -0.57200
O39         O  0.19172250  0.24469797  0.57189777    -0.60500
In40       In  0.81360679  0.05069380  0.36565046     1.36900
C41         C  0.78712494  0.10320858  0.40262917     0.77200
O42         O  0.86607477  0.07153146  0.38051289    -0.61200
O43         O  0.85748437  0.05851425  0.32780745    -0.52100
C44         C  0.82864619  0.98603792  0.38818012     0.69900
O45         O  0.81925872  0.00984385  0.40829976    -0.47000
C46         C  0.76038517  0.05094062  0.32010703     0.74600
O47         O  0.78262338  0.07179192  0.41095188    -0.58900
O48         O  0.78973402  0.06336055  0.31322091    -0.49000
O49         O  0.80662812  0.10741372  0.37688291    -0.55300
C50         C  0.87829505  0.07017181  0.35026357     0.84800
O51         O  0.82941577  0.99510386  0.35671458    -0.57200
O52         O  0.75918376  0.03597771  0.34926752    -0.60500
In53       In  0.22106093  0.91290300  0.66237142     1.36900
C54         C  0.27465557  0.91266106  0.70710867     0.77200
O55         O  0.22992006  0.85595161  0.65889787    -0.61200
O56         O  0.24442664  0.88672245  0.61560037    -0.52100
C57         C  0.15501698  0.89688804  0.67479234     0.69900
O58         O  0.17600419  0.90595927  0.69828238    -0.47000
C59         C  0.21147331  0.97845997  0.64049831     0.74600
O60         O  0.24418430  0.90495882  0.71578159    -0.58900
O61         O  0.22284991  0.95500385  0.62098984    -0.49000
O62         O  0.27697090  0.92327336  0.67618701    -0.55300
C63         C  0.24398491  0.85689631  0.62953663     0.84800
O64         O  0.16805836  0.89562759  0.64487764    -0.57200
O65         O  0.20578752  0.96828653  0.67107722    -0.60500
In66       In  0.95134349  0.82800492  0.71761726     1.36900
C67         C  0.89679422  0.86382107  0.74034818     0.77200
O68         O  0.92774394  0.84284957  0.66623062    -0.61200
O69         O  0.94900586  0.79246880  0.67201661    -0.52100
C70         C  0.01490616  0.85258790  0.70479945     0.69900
O71         O  0.99169799  0.87080836  0.71860122    -0.47000
C72         C  0.95156014  0.78118985  0.76956224     0.74600
O73         O  0.92745082  0.87507581  0.74270098    -0.58900
O74         O  0.94068933  0.77472026  0.73947595    -0.49000
O75         O  0.89434060  0.83517871  0.72508024    -0.55300
C76         C  0.93386209  0.81403085  0.65228813     0.84800
O77         O  0.00589817  0.82186919  0.69897945    -0.57200
O78         O  0.96489937  0.81080921  0.77220481    -0.60500
In79       In  0.67547072  0.18887028  0.94541218     1.36900
C80         C  0.72414345  0.23871540  0.94389654     0.77200
O81         O  0.66300580  0.19396046  0.88878157    -0.61200
O82         O  0.63267360  0.22341754  0.92308499    -0.52100
C83         C  0.68931576  0.12351541  0.92777158     0.69900
O84         O  0.71146591  0.14312501  0.94166603    -0.47000
C85         C  0.65181256  0.17571909  0.00979575     0.74600
O86         O  0.72881112  0.20884903  0.93189022    -0.58900
O87         O  0.63213394  0.18541128  0.98520323    -0.49000
O88         O  0.69549538  0.24213510  0.95891108    -0.55300
C89         C  0.63949274  0.21635008  0.89191972     0.84800
O90         O  0.65997975  0.13741218  0.92291424    -0.57200
O91         O  0.68317452  0.17375112  0.00144461    -0.60500
In92       In  0.72781396  0.91725425  0.86391139     1.36900
C93         C  0.75228544  0.86315844  0.90062113     0.77200
O94         O  0.67498326  0.90074237  0.88176199    -0.61200
O95         O  0.68151279  0.91200811  0.82826592    -0.52100
C96         C  0.71898126  0.98283892  0.88448843     0.69900
O97         O  0.72624607  0.95851427  0.90549254    -0.47000
C98         C  0.77795269  0.91216402  0.81633282     0.74600
O99         O  0.76005255  0.89411843  0.90758886    -0.58900
O100        O  0.74722318  0.90238192  0.81122295    -0.49000
O101        O  0.73012114  0.86042910  0.87664996    -0.55300
C102        C  0.66119878  0.90222688  0.85195077     0.84800
O103        O  0.71773592  0.97371081  0.85322514    -0.57200
O104        O  0.78239092  0.92703629  0.84498031    -0.60500
In105      In  0.31229574  0.05651950  0.16577851     1.36900
C106        C  0.25926909  0.05724128  0.21081388     0.77200
O107        O  0.30520391  0.11340641  0.15775069    -0.61200
O108        O  0.28608821  0.08044339  0.11837173    -0.52100
C109        C  0.37871074  0.07320288  0.17842395     0.69900
O110        O  0.35958690  0.05904929  0.20089917    -0.47000
C111        C  0.32169288  0.99169956  0.14333274     0.74600
O112        O  0.28919777  0.06814464  0.21819222    -0.58900
O113        O  0.31120954  0.01597352  0.12368379    -0.49000
O114        O  0.25723879  0.04379295  0.18126799    -0.55300
C115        C  0.28904566  0.11109561  0.12931744     0.84800
O116        O  0.36384036  0.07869731  0.14961094    -0.57200
O117        O  0.32703335  0.00071350  0.17423749    -0.60500
In118      In  0.58766678  0.13464018  0.21640460     1.36900
C119        C  0.63892911  0.09532674  0.24280428     0.77200
O120        O  0.60785359  0.11837472  0.16445074    -0.61200
O121        O  0.59338611  0.17098479  0.17057436    -0.52100
C122        C  0.52154065  0.11482727  0.20504896     0.69900
O123        O  0.54544564  0.09357829  0.21257167    -0.47000
C124        C  0.59360708  0.18136806  0.26760678     0.74600
O125        O  0.60749778  0.09043588  0.25023666    -0.58900
O126        O  0.60524777  0.18637578  0.23751588    -0.49000
O127        O  0.64345845  0.11843590  0.21998536    -0.55300
C128        C  0.60519784  0.14809080  0.15064293     0.84800
O129        O  0.53150684  0.14586932  0.20417289    -0.57200
O130        O  0.57680687  0.15357916  0.27057024    -0.60500
In131      In  0.36741350  0.78772499  0.07981046     1.36900
C132        C  0.40207610  0.76627807  0.13601845     0.77200
O133        O  0.38278733  0.83935240  0.10036048    -0.61200
O134        O  0.33072579  0.83304404  0.08356022    -0.52100
C135        C  0.39137778  0.79791709  0.01552785     0.69900
O136        O  0.41063755  0.78762153  0.04016925    -0.47000
C137        C  0.32280862  0.73503084  0.08206857     0.74600
O138        O  0.41423917  0.76348157  0.10581117    -0.58900
O139        O  0.31453481  0.76563101  0.08952471    -0.49000
O140        O  0.37298875  0.78103867  0.13713855    -0.55300
C141        C  0.35305297  0.85264759  0.09717716     0.84800
O142        O  0.36006682  0.80162082  0.02366841    -0.57200
O143        O  0.35306332  0.73210066  0.07044153    -0.60500
In144      In  0.45437502  0.83992940  0.80911088     1.36900
C145        C  0.45781096  0.79635013  0.75518493     0.77200
O146        O  0.39692581  0.84416635  0.79988948    -0.61200
O147        O  0.42823295  0.88581897  0.78263707    -0.52100
C148        C  0.43719857  0.82642203  0.87501065     0.69900
O149        O  0.44929252  0.80360997  0.85514225    -0.47000
C150        C  0.51865452  0.86345159  0.82188856     0.74600
O151        O  0.44740182  0.78715132  0.78483317    -0.58900
O152        O  0.49473555  0.88283924  0.81023531    -0.49000
O153        O  0.46867510  0.82708490  0.75395806    -0.55300
C154        C  0.39820148  0.87286247  0.78400630     0.84800
O155        O  0.43362786  0.85593662  0.86095259    -0.57200
O156        O  0.50965024  0.83239927  0.82641224    -0.60500
In157      In  0.87207109  0.68668842  0.94711681     1.36900
C158        C  0.90889712  0.70859201  0.89292360     0.77200
O159        O  0.89052922  0.63396771  0.93158945    -0.61200
O160        O  0.83656777  0.64118578  0.93946348    -0.52100
C161        C  0.89272597  0.67607244  0.01263188     0.69900
O162        O  0.91328309  0.68578803  0.98918295    -0.47000
C163        C  0.82672603  0.73949131  0.94399723     0.74600
O164        O  0.91752643  0.71538179  0.92380806    -0.58900
O165        O  0.81956664  0.70956623  0.93323826    -0.49000
O166        O  0.88248295  0.68967453  0.89039155    -0.55300
C167        C  0.86067338  0.62068749  0.93121903     0.84800
O168        O  0.86173519  0.67301065  0.00267315    -0.57200
O169        O  0.85603150  0.74144480  0.95843879    -0.60500
In170      In  0.95191566  0.63470342  0.22062491     1.36900
C171        C  0.94957610  0.68052476  0.27196140     0.77200
O172        O  0.89527595  0.62299670  0.22527425    -0.61200
O173        O  0.93036717  0.58948187  0.25148447    -0.52100
C174        C  0.93607703  0.64819142  0.15448864     0.69900
O175        O  0.94644100  0.67126827  0.17509521    -0.47000
C176        C  0.01765237  0.61537910  0.21097679     0.74600
O177        O  0.93635580  0.68623805  0.24240908    -0.58900
O178        O  0.99401242  0.59376457  0.21767988    -0.49000
O179        O  0.96589833  0.65230614  0.27430347    -0.55300
C180        C  0.89908253  0.59742984  0.24553893     0.84800
O181        O  0.93401598  0.61826515  0.16785559    -0.57200
O182        O  0.00748378  0.64639840  0.21002977    -0.60500
In183      In  0.82468653  0.41447479  0.86469453     1.36900
C184        C  0.77167039  0.41248600  0.81970853     0.77200
O185        O  0.81952536  0.35690751  0.87273961    -0.61200
O186        O  0.79814086  0.38971225  0.91074297    -0.52100
C187        C  0.88970059  0.39798722  0.84996569     0.69900
O188        O  0.86922275  0.41119534  0.82781723    -0.47000
C189        C  0.83546693  0.47970968  0.88635353     0.74600
O190        O  0.80216026  0.40430641  0.81171554    -0.58900
O191        O  0.82616881  0.45560829  0.90660726    -0.49000
O192        O  0.76898340  0.42401895  0.85001524    -0.55300
C193        C  0.80201994  0.35904342  0.90010966     0.84800
O194        O  0.87689109  0.39354069  0.87971674    -0.57200
O195        O  0.83819205  0.47053917  0.85527128    -0.60500
In196      In  0.16715351  0.28650812  0.08898563     1.36900
C197        C  0.21219264  0.23342445  0.08979132     0.77200
O198        O  0.15809368  0.27980097  0.14607509    -0.61200
O199        O  0.11883540  0.26236871  0.11208603    -0.52100
C200        C  0.18170732  0.35240680  0.10478979     0.69900
O201        O  0.20335765  0.32799250  0.10739612    -0.47000
C202        C  0.14878009  0.29354714  0.02201922     0.74600
O203        O  0.22141442  0.26450199  0.09358403    -0.58900
O204        O  0.12713680  0.28805367  0.04580214    -0.49000
O205        O  0.18030560  0.22994508  0.08355629    -0.55300
C206        C  0.12946287  0.26452760  0.14304370     0.84800
O207        O  0.15222321  0.34309473  0.09403452    -0.57200
O208        O  0.17971382  0.29490341  0.03268623    -0.60500
In209      In  0.22391835  0.55935438  0.16302940     1.36900
C210        C  0.24825744  0.61356475  0.12774044     0.77200
O211        O  0.17211323  0.58354664  0.15193063    -0.61200
O212        O  0.17900068  0.55795179  0.20042564    -0.52100
C213        C  0.21405647  0.49499540  0.13944124     0.69900
O214        O  0.20969014  0.52156375  0.12051811    -0.47000
C215        C  0.27738559  0.56293207  0.20732782     0.74600
O216        O  0.25111822  0.58289475  0.11675735    -0.58900
O217        O  0.24659567  0.56982999  0.21576596    -0.49000
O218        O  0.23112460  0.61616122  0.15527654    -0.55300
C219        C  0.15892352  0.57489392  0.18051564     0.84800
O220        O  0.22477422  0.50152956  0.16961678    -0.57200
O221        O  0.28021813  0.55161962  0.17688557    -0.60500
In222      In  0.09590990  0.33424935  0.81210065     1.36900
C223        C  0.15026348  0.37132796  0.79128278     0.77200
O224        O  0.11592076  0.34873819  0.86485982    -0.61200
O225        O  0.10129818  0.29638198  0.85676284    -0.52100
C226        C  0.03024409  0.35429852  0.82165002     0.69900
O227        O  0.05410406  0.37543853  0.81449341    -0.47000
C228        C  0.09837251  0.29096788  0.75842401     0.74600
O229        O  0.11948554  0.38220670  0.78762122    -0.58900
O230        O  0.10633255  0.28209074  0.78903272    -0.49000
O231        O  0.15274475  0.34247851  0.80671275    -0.55300
C232        C  0.11344614  0.31853184  0.87738157     0.84800
O233        O  0.03995179  0.32315434  0.82286744    -0.57200
O234        O  0.08727594  0.32159987  0.75564026    -0.60500
In235      In  0.31920314  0.41872976  0.66708795     1.36900
C236        C  0.29519573  0.36380680  0.63199388     0.77200
O237        O  0.37036878  0.39568353  0.65162882    -0.61200
O238        O  0.36723412  0.41792880  0.70143004    -0.52100
C239        C  0.32871531  0.48406060  0.64429801     0.69900
O240        O  0.31851559  0.46017588  0.62450397    -0.47000
C241        C  0.26789145  0.41846593  0.71371890     0.74600
O242        O  0.29506268  0.39415862  0.61918080    -0.58900
O243        O  0.29806258  0.40755201  0.72041307    -0.49000
O244        O  0.30855215  0.36187484  0.66194334    -0.55300
C245        C  0.38581446  0.40249620  0.67967427     0.84800
O246        O  0.33277276  0.47442270  0.67536056    -0.57200
O247        O  0.26463940  0.43148143  0.68375253    -0.60500
In248      In  0.59418885  0.34077927  0.71755435     1.36900
C249        C  0.59474989  0.29718604  0.77210031     0.77200
O250        O  0.65139679  0.34794795  0.72284017    -0.61200
O251        O  0.61893432  0.38529508  0.74595907    -0.52100
C252        C  0.61185432  0.32555253  0.65251632     0.69900
O253        O  0.60593240  0.30273275  0.67542864    -0.47000
C254        C  0.52913311  0.36319158  0.70677595     0.74600
O255        O  0.60261908  0.28807125  0.74181138    -0.58900
O256        O  0.55390924  0.38346355  0.71334153    -0.49000
O257        O  0.58357100  0.32780145  0.77374365    -0.55300
C258        C  0.64939281  0.37416165  0.74186201     0.84800
O259        O  0.60800495  0.35631426  0.66278282    -0.57200
O260        O  0.53779016  0.33164635  0.70623702    -0.60500
In261      In  0.67040406  0.27998286  0.44602550     1.36900
C262        C  0.63504775  0.25778888  0.39003271     0.77200
O263        O  0.65823227  0.33593985  0.43582235    -0.61200
O264        O  0.71078208  0.32069498  0.43261209    -0.52100
C265        C  0.64955867  0.29180877  0.51113490     0.69900
O266        O  0.62966359  0.29508970  0.48516307    -0.47000
C267        C  0.71252255  0.22481063  0.44743413     0.74600
O268        O  0.62413554  0.25334647  0.42059389    -0.58900
O269        O  0.72332039  0.25554345  0.44376630    -0.49000
O270        O  0.66246863  0.27534798  0.38853284    -0.55300
C271        C  0.68903610  0.34518738  0.43046232     0.84800
O272        O  0.67930470  0.28061219  0.50398551    -0.57200
O273        O  0.68038725  0.22276112  0.45297659    -0.60500
In274      In  0.72291785  0.55179459  0.36297084     1.36900
C275        C  0.77663575  0.55300594  0.31919036     0.77200
O276        O  0.73379071  0.60777013  0.37017047    -0.61200
O277        O  0.75071661  0.57338239  0.41015135    -0.52100
C278        C  0.65800512  0.57244922  0.34565947     0.69900
O279        O  0.67597477  0.55340591  0.32623856    -0.47000
C280        C  0.71392961  0.48785761  0.38943400     0.74600
O281        O  0.74586228  0.55937424  0.30963585    -0.58900
O282        O  0.70909067  0.51489478  0.40686510    -0.49000
O283        O  0.77917967  0.54349817  0.35046875    -0.55300
C284        C  0.74922555  0.60426847  0.39891779     0.84800
O285        O  0.67309408  0.58019443  0.37359307    -0.57200
O286        O  0.72305283  0.49359754  0.35862975    -0.60500
In287      In  0.45164853  0.64479982  0.30954259     1.36900
C288        C  0.39764642  0.60957278  0.28421971     0.77200
O289        O  0.43319354  0.62684261  0.36207395    -0.61200
O290        O  0.44766398  0.67948048  0.35620595    -0.52100
C291        C  0.51759010  0.62333231  0.31821080     0.69900
O292        O  0.49358113  0.60346047  0.30822890    -0.47000
C293        C  0.44938208  0.69073424  0.25701527     0.74600
O294        O  0.42833234  0.59816363  0.28293361    -0.58900
O295        O  0.43737777  0.69701522  0.28663919    -0.49000
O296        O  0.39461122  0.63762622  0.30037168    -0.55300
C297        C  0.43661210  0.65599967  0.37626601     0.84800
O298        O  0.50770571  0.65407189  0.32287907    -0.57200
O299        O  0.46503526  0.66216048  0.25534772    -0.60500
In300      In  0.37644386  0.69102568  0.58497107     1.36900
C301        C  0.32820291  0.74093478  0.58863171     0.77200
O302        O  0.39451864  0.69507100  0.64037010    -0.61200
O303        O  0.41972366  0.72646386  0.60310051    -0.52100
C304        C  0.36092024  0.62603566  0.60402812     0.69900
O305        O  0.34041370  0.64507455  0.58667949    -0.47000
C306        C  0.39680785  0.67927980  0.51947123     0.74600
O307        O  0.32452006  0.71125355  0.60198828    -0.58900
O308        O  0.41804291  0.68539347  0.54374480    -0.49000
O309        O  0.35596195  0.74445233  0.57215031    -0.55300
C310        C  0.41633352  0.71869332  0.63482358     0.84800
O311        O  0.38950475  0.64016450  0.61131805    -0.57200
O312        O  0.36569391  0.67959986  0.52880974    -0.60500
C313        C  0.43573647  0.69033247  0.46905841    -0.26700
C314        C  0.40726798  0.67258210  0.48303177    -0.14800
C315        C  0.38933276  0.64865889  0.46183682     0.35900
C316        C  0.39980205  0.64346570  0.42755099    -0.26100
C317        C  0.42747832  0.66205100  0.41316169    -0.15400
C318        C  0.44591862  0.68553881  0.43432037     0.37000
N319        N  0.47574898  0.70333661  0.42105500    -0.89600
H320        H  0.44980491  0.70842565  0.48518067     0.18100
H321        H  0.38572961  0.62503893  0.41179703     0.18100
N322        N  0.36099466  0.62846536  0.47461624    -0.88700
H323        H  0.48780516  0.71757942  0.44064251     0.35400
H324        H  0.46706666  0.72143487  0.40259737     0.40500
H325        H  0.34073177  0.64509616  0.48107372     0.40200
H326        H  0.36921743  0.61497492  0.49687133     0.35000
C327        C  0.56501677  0.57960910  0.31032132    -0.26700
C328        C  0.55410995  0.61136296  0.32428078    -0.14800
C329        C  0.57825631  0.63047643  0.34436807     0.35900
C330        C  0.61153064  0.61708652  0.35084229    -0.26100
C331        C  0.62240269  0.58538071  0.33696550    -0.15400
C332        C  0.59892888  0.56667494  0.31601361     0.37000
N333        N  0.60929666  0.53440277  0.30096579    -0.89600
H334        H  0.54700802  0.56476317  0.29476632     0.18100
H335        H  0.62928307  0.63195797  0.36670210     0.18100
N336        N  0.56985504  0.66336684  0.35904343    -0.88700
H337        H  0.58926149  0.52411318  0.28605377     0.35400
H338        H  0.61389932  0.51674959  0.32136132     0.40500
H339        H  0.54835624  0.66042446  0.37509026     0.40200
H340        H  0.56394216  0.68082666  0.33894259     0.35000
C341        C  0.73341627  0.42643320  0.39478218    -0.26700
C342        C  0.70932166  0.45220731  0.40343378    -0.14800
C343        C  0.68030916  0.44308321  0.42349133     0.35900
C344        C  0.67461763  0.40802742  0.43206399    -0.26100
C345        C  0.69802713  0.38192468  0.42241732    -0.15400
C346        C  0.72850797  0.39150096  0.40466478     0.37000
N347        N  0.75402827  0.36586612  0.39612809    -0.89600
H348        H  0.75608183  0.43360182  0.37997771     0.18100
H349        H  0.65161924  0.40103330  0.44642000     0.18100
N350        N  0.65591352  0.46913132  0.43380561    -0.88700
H351        H  0.77530891  0.37743883  0.38409935     0.35400
H352        H  0.74292194  0.34928723  0.37790450     0.40500
H353        H  0.66847109  0.48512423  0.45163605     0.40200
H354        H  0.63521430  0.45785797  0.44705368     0.35000
C355        C  0.61475837  0.34029470  0.58929314    -0.26700
C356        C  0.62238695  0.31697060  0.61653599    -0.14800
C357        C  0.64008983  0.28584261  0.60900119     0.35900
C358        C  0.64833084  0.27811012  0.57436680    -0.26100
C359        C  0.63940854  0.30077424  0.54703374    -0.15400
C360        C  0.62297975  0.33254207  0.55482625     0.37000
N361        N  0.61545436  0.35794803  0.52846683    -0.89600
H362        H  0.60195940  0.36463463  0.59473996     0.18100
H363        H  0.66180696  0.25421167  0.56863603     0.18100
N364        N  0.65033629  0.26252857  0.63655551    -0.88700
H365        H  0.59831139  0.34724448  0.51052072     0.35400
H366        H  0.63854152  0.36421620  0.51579577     0.40500
H367        H  0.66848466  0.27544022  0.65201544     0.40200
H368        H  0.66299776  0.24086333  0.62665609     0.35000
C369        C  0.44410617  0.41471842  0.70582626    -0.26700
C370        C  0.42253299  0.39273570  0.68648424    -0.14800
C371        C  0.43628855  0.36155767  0.67360834     0.35900
C372        C  0.47107693  0.35288230  0.68052810    -0.26100
C373        C  0.49287560  0.37481299  0.69964662    -0.15400
C374        C  0.47933116  0.40648381  0.71195181     0.37000
N375        N  0.50097836  0.42982092  0.73118329    -0.89600
H376        H  0.43360710  0.43876340  0.71555673     0.18100
H377        H  0.48127010  0.32870108  0.67082198     0.18100
N378        N  0.41467430  0.33839343  0.65410813    -0.88700
H379        H  0.48654324  0.45094793  0.73984526     0.35400
H380        H  0.51922541  0.43997670  0.71400700     0.40500
H381        H  0.39540496  0.32922341  0.67071075     0.40200
H382        H  0.42877653  0.31673535  0.64623510     0.35000
C383        C  0.35559891  0.54149399  0.65540217    -0.26700
C384        C  0.33634646  0.52032187  0.63286614    -0.14800
C385        C  0.32502313  0.53436053  0.60065116     0.35900
C386        C  0.33248989  0.56924566  0.59230310    -0.26100
C387        C  0.35221443  0.59001913  0.61468650    -0.15400
C388        C  0.36376851  0.57597645  0.64666463     0.37000
N389        N  0.38329135  0.59691002  0.67045006    -0.89600
H390        H  0.36454376  0.53104543  0.68008483     0.18100
H391        H  0.32372093  0.58001675  0.56768591     0.18100
N392        N  0.30585809  0.51346067  0.57659510    -0.88700
H393        H  0.39018321  0.58259077  0.69262384     0.35400
H394        H  0.36706463  0.61688384  0.67868350     0.40500
H395        H  0.32277488  0.49457875  0.56731738     0.40200
H396        H  0.29813724  0.52822258  0.55497816     0.35000
C397        C  0.24317114  0.39166344  0.76699304    -0.26700
C398        C  0.23836094  0.41340843  0.73791519    -0.14800
C399        C  0.20464810  0.42608934  0.73037780     0.35900
C400        C  0.17631894  0.41393954  0.74988310    -0.26100
C401        C  0.18091963  0.38934573  0.77663060    -0.15400
C402        C  0.21491714  0.37938864  0.78614241     0.37000
N403        N  0.22091205  0.35583055  0.81452773    -0.89600
H404        H  0.26885592  0.38230580  0.77375425     0.18100
H405        H  0.15035652  0.42224846  0.74284097     0.18100
N406        N  0.19902013  0.45014500  0.70219044    -0.88700
H407        H  0.23716275  0.36796420  0.83247937     0.35400
H408        H  0.23390532  0.33412272  0.80508186     0.40500
H409        H  0.21174173  0.47314025  0.70853417     0.40200
H410        H  0.17272566  0.45630195  0.69970076     0.35000
C411        C  0.33436491  0.59716551  0.28066974    -0.26700
C412        C  0.36761341  0.59283766  0.26689604    -0.14800
C413        C  0.37113678  0.57584581  0.23494992     0.35900
C414        C  0.34151287  0.56445478  0.21693629    -0.26100
C415        C  0.30802964  0.56991345  0.23002924    -0.15400
C416        C  0.30460488  0.58559048  0.26286958     0.37000
N417        N  0.27094621  0.59081726  0.27760544    -0.89600
H418        H  0.33154931  0.61022960  0.30523357     0.18100
H419        H  0.34476309  0.55268071  0.19177322     0.18100
N420        N  0.40456626  0.57207712  0.21959131    -0.88700
H421        H  0.27290232  0.60380598  0.30120508     0.35400
H422        H  0.26070656  0.56637611  0.28326788     0.40500
H423        H  0.40416961  0.58485637  0.19554330     0.40200
H424        H  0.40883702  0.54573035  0.21525105     0.35000
C425        C  0.09871276  0.29630743  0.93582750    -0.26700
C426        C  0.12373853  0.31001038  0.91345697    -0.14800
C427        C  0.15741038  0.31678782  0.92648038     0.35900
C428        C  0.16453416  0.31123471  0.96184665    -0.26100
C429        C  0.13922822  0.29859053  0.98472476    -0.15400
C430        C  0.10585856  0.29090307  0.97138647     0.37000
N431        N  0.07930342  0.27762332  0.99374184    -0.89600
H432        H  0.07302349  0.29094706  0.92570356     0.18100
H433        H  0.19032362  0.31693844  0.97147654     0.18100
N434        N  0.18517098  0.32870657  0.90473159    -0.88700
H435        H  0.05714950  0.27130495  0.97938822     0.35400
H436        H  0.07200121  0.29767096  0.01020272     0.40500
H437        H  0.17772650  0.33016890  0.87870213     0.40200
H438        H  0.20487920  0.31009195  0.90603152     0.35000
C439        C  0.17189167  0.41621941  0.09740194    -0.26700
C440        C  0.19038539  0.38890760  0.11339124    -0.14800
C441        C  0.21749639  0.39683798  0.13683407     0.35900
C442        C  0.22503121  0.43164958  0.14418677    -0.26100
C443        C  0.20671110  0.45897571  0.12816682    -0.15400
C444        C  0.18022920  0.45115928  0.10394628     0.37000
N445        N  0.16122422  0.47855357  0.08683193    -0.89600
H446        H  0.15127507  0.41027785  0.07919128     0.18100
H447        H  0.24535687  0.43750872  0.16275448     0.18100
N448        N  0.23701703  0.36955765  0.15356439    -0.88700
H449        H  0.14156087  0.46838322  0.07117302     0.35400
H450        H  0.17828324  0.49119386  0.07005494     0.40500
H451        H  0.22017723  0.35612071  0.16996445     0.40200
H452        H  0.25653425  0.37976476  0.16936608     0.35000
C453        C  0.70814678  0.41631720  0.80882192    -0.26700
C454        C  0.74109689  0.40705982  0.79667469    -0.14800
C455        C  0.74364351  0.38957099  0.76471675     0.35900
C456        C  0.71325999  0.38071063  0.74652989    -0.26100
C457        C  0.68032690  0.38870790  0.75945355    -0.15400
C458        C  0.67776816  0.40692405  0.79091373     0.37000
N459        N  0.64446339  0.41421893  0.80561746    -0.89600
H460        H  0.70592503  0.42947960  0.83338921     0.18100
H461        H  0.71530919  0.36656246  0.72249634     0.18100
N462        N  0.77684127  0.37956640  0.75142968    -0.88700
H463        H  0.64716751  0.42843213  0.82842938     0.35400
H464        H  0.63338998  0.39054630  0.81281630     0.40500
H465        H  0.79004712  0.40225512  0.74476727     0.40200
H466        H  0.77398443  0.36551824  0.72853788     0.35000
C467        C  0.93824573  0.35647842  0.85648640    -0.26700
C468        C  0.92550598  0.38736590  0.84177176    -0.14800
C469        C  0.94730620  0.40731318  0.82011862     0.35900
C470        C  0.98131507  0.39620075  0.81409769    -0.26100
C471        C  0.99402402  0.36508109  0.82857350    -0.15400
C472        C  0.97210365  0.34493461  0.84996500     0.37000
N473        N  0.98439248  0.31314957  0.86552377    -0.89600
H474        H  0.92156191  0.34112309  0.87304986     0.18100
H475        H  0.99784873  0.41190092  0.79772027     0.18100
N476        N  0.93605219  0.43941616  0.80478267    -0.88700
H477        H  0.96482589  0.30124774  0.87996356     0.35400
H478        H  0.00406479  0.31944476  0.88311477     0.40500
H479        H  0.92774580  0.45577191  0.82453508     0.40200
H480        H  0.91521397  0.43451940  0.78811613     0.35000
C481        C  0.83603297  0.58410031  0.24642187    -0.26700
C482        C  0.86887095  0.57998232  0.26194552    -0.14800
C483        C  0.87115274  0.56286744  0.29454145     0.35900
C484        C  0.84083504  0.55223093  0.31140802    -0.26100
C485        C  0.80774713  0.55864909  0.29699790    -0.15400
C486        C  0.80570742  0.57381723  0.26339438     0.37000
N487        N  0.77332639  0.58032635  0.24613924    -0.89600
H488        H  0.83370182  0.59678846  0.22130142     0.18100
H489        H  0.84323894  0.54041532  0.33693265     0.18100
N490        N  0.90356401  0.55773315  0.31222168    -0.88700
H491        H  0.75901452  0.59798871  0.26067474     0.35400
H492        H  0.75980123  0.55703112  0.24426269     0.40500
H493        H  0.91515609  0.58175074  0.31608159     0.40200
H494        H  0.91959489  0.54255055  0.29662102     0.35000
C495        C  0.11050760  0.61712154  0.17856704    -0.26700
C496        C  0.12305706  0.58474225  0.18971696    -0.14800
C497        C  0.10112037  0.56252745  0.20879076     0.35900
C498        C  0.06678569  0.57296356  0.21556013    -0.26100
C499        C  0.05420125  0.60540545  0.20422927    -0.15400
C500        C  0.07668487  0.62783445  0.18605112     0.37000
N501        N  0.06522694  0.66141223  0.17461037    -0.89600
H502        H  0.12724265  0.63449850  0.16418681     0.18100
H503        H  0.04980499  0.55570770  0.22975274     0.18100
N504        N  0.11349311  0.52927063  0.22060235    -0.88700
H505        H  0.06782658  0.66286624  0.14766442     0.35400
H506        H  0.08159895  0.67991054  0.18562078     0.40500
H507        H  0.11829706  0.51432266  0.19868069     0.40200
H508        H  0.09435507  0.51635780  0.23470052     0.35000
C509        C  0.87522285  0.56973801  0.89507735    -0.26700
C510        C  0.85455580  0.58426564  0.92094932    -0.14800
C511        C  0.82823038  0.56404400  0.93614678     0.35900
C512        C  0.82271060  0.52990113  0.92467502    -0.26100
C513        C  0.84259943  0.51569800  0.89795551    -0.15400
C514        C  0.86927796  0.53591498  0.88304192     0.37000
N515        N  0.89096428  0.52178615  0.85651157    -0.89600
H516        H  0.89559641  0.58519709  0.88355649     0.18100
H517        H  0.80246933  0.51441340  0.93635754     0.18100
N518        N  0.80753891  0.57806197  0.96349101    -0.88700
H519        H  0.91090180  0.53901270  0.85032682     0.35400
H520        H  0.87588402  0.51954239  0.83402312     0.40500
H521        H  0.82398675  0.58263090  0.98464104     0.40200
H522        H  0.78926588  0.55993713  0.97184332     0.35000
C523        C  0.92891020  0.68979862  0.06450928    -0.26700
C524        C  0.90397159  0.66857786  0.04877731    -0.14800
C525        C  0.89037429  0.64018919  0.06760268     0.35900
C526        C  0.90206795  0.63367213  0.10167655    -0.26100
C527        C  0.92621370  0.65545882  0.11784898    -0.15400
C528        C  0.93987090  0.68384126  0.09901817     0.37000
N529        N  0.96489908  0.70637070  0.11482925    -0.89600
H530        H  0.93945275  0.71145257  0.04997469     0.18100
H531        H  0.89157458  0.61186498  0.11601728     0.18100
N532        N  0.86552420  0.61743203  0.05179003    -0.88700
H533        H  0.97172400  0.72637650  0.09774156     0.35400
H534        H  0.98737307  0.69184309  0.11951670     0.40500
H535        H  0.84229981  0.63114787  0.04898130     0.40200
H536        H  0.86013309  0.59646207  0.06825506     0.35000
C537        C  0.45518795  0.79000908  0.69070991    -0.26700
C538        C  0.45472335  0.77421535  0.72376194    -0.14800
C539        C  0.44727869  0.73847547  0.72623186     0.35900
C540        C  0.43679629  0.72039239  0.69635637    -0.26100
C541        C  0.43421369  0.73696492  0.66378751    -0.15400
C542        C  0.44488531  0.77189160  0.66074465     0.37000
N543        N  0.44333609  0.78954005  0.62774671    -0.89600
H544        H  0.46139445  0.81729417  0.68846389     0.18100
H545        H  0.42947586  0.69339449  0.69874075     0.18100
N546        N  0.44951429  0.72083053  0.75917782    -0.88700
H547        H  0.45318123  0.81465023  0.62979824     0.35400
H548        H  0.41720926  0.79220843  0.62083464     0.40500
H549        H  0.47542399  0.72149973  0.76725578     0.40200
H550        H  0.44305773  0.69468759  0.75658755     0.35000
C551        C  0.42210790  0.74319995  0.23012035    -0.26700
C552        C  0.44303843  0.71366825  0.22632254    -0.14800
C553        C  0.45390642  0.70452321  0.19269384     0.35900
C554        C  0.44230509  0.72376547  0.16374310    -0.26100
C555        C  0.41919544  0.75152839  0.16741709    -0.15400
C556        C  0.40992105  0.76211733  0.20109341     0.37000
N557        N  0.38738659  0.79139620  0.20571171    -0.89600
H558        H  0.41386539  0.75069669  0.25576792     0.18100
H559        H  0.44975329  0.71548966  0.13807736     0.18100
N560        N  0.47541414  0.67478366  0.18748218    -0.88700
H561        H  0.40042796  0.81337163  0.19669941     0.35400
H562        H  0.38261121  0.79536216  0.23203430     0.40500
H563        H  0.49774006  0.68286426  0.17459043     0.40200
H564        H  0.46206609  0.65769591  0.17130620     0.35000
C565        C  0.25281344  0.67738733  0.12015780    -0.26700
C566        C  0.26476799  0.64425130  0.11130223    -0.14800
C567        C  0.29402539  0.64136723  0.08972095     0.35900
C568        C  0.31135172  0.67158167  0.07877232    -0.26100
C569        C  0.30025504  0.70463534  0.08896824    -0.15400
C570        C  0.27005928  0.70743001  0.10913460     0.37000
N571        N  0.25741428  0.74059567  0.11966100    -0.89600
H572        H  0.23032829  0.68007286  0.13656595     0.18100
H573        H  0.33453108  0.66915601  0.06333749     0.18100
N574        N  0.30699091  0.60789584  0.08013223    -0.88700
H575        H  0.23188671  0.74323211  0.11073356     0.35400
H576        H  0.25715788  0.74104874  0.14676461     0.40500
H577        H  0.31666747  0.59586307  0.10261786     0.40200
H578        H  0.32792483  0.61042386  0.06325687     0.35000
C579        C  0.43192257  0.78694346  0.96627311    -0.26700
C580        C  0.40419007  0.80579169  0.98010467    -0.14800
C581        C  0.38864331  0.83220754  0.95979138     0.35900
C582        C  0.40036932  0.83888154  0.92603609    -0.26100
C583        C  0.42718307  0.81929650  0.91157459    -0.15400
C584        C  0.44343975  0.79323972  0.93209145     0.37000
N585        N  0.47165366  0.77346578  0.91831620    -0.89600
H586        H  0.44422010  0.76688097  0.98193879     0.18100
H587        H  0.38786136  0.85913944  0.91078674     0.18100
N588        N  0.36117143  0.85278268  0.97357320    -0.88700
H589        H  0.48004310  0.75472468  0.93628393     0.35400
H590        H  0.49239775  0.79043098  0.91457595     0.40500
H591        H  0.33950390  0.85015135  0.95738441     0.40200
H592        H  0.36884741  0.87873578  0.97286084     0.35000
C593        C  0.58504959  0.19726142  0.32978104    -0.26700
C594        C  0.60047485  0.20475462  0.29760300    -0.14800
C595        C  0.62389459  0.23284167  0.29551988     0.35900
C596        C  0.63276033  0.25110794  0.32576657    -0.26100
C597        C  0.61913588  0.24210595  0.35834917    -0.15400
C598        C  0.59375695  0.21579361  0.36000961     0.37000
N599        N  0.57772486  0.20707925  0.39244079    -0.89600
H600        H  0.56662141  0.17621584  0.33160533     0.18100
H601        H  0.65175761  0.27164910  0.32403952     0.18100
N602        N  0.63961100  0.24217846  0.26307713    -0.88700
H603        H  0.56041443  0.18653177  0.38935371     0.35400
H604        H  0.56288460  0.22843982  0.39979736     0.40500
H605        H  0.65697117  0.22242888  0.25679789     0.40200
H606        H  0.65444762  0.26464446  0.26566948     0.35000
C607        C  0.28592729  0.17495646  0.12131224    -0.26700
C608        C  0.27340227  0.14212709  0.11211863    -0.14800
C609        C  0.24333385  0.14000883  0.09114223     0.35900
C610        C  0.22492800  0.17051931  0.08253070    -0.26100
C611        C  0.23590049  0.20314593  0.09421667    -0.15400
C612        C  0.26747656  0.20542947  0.11292249     0.37000
N613        N  0.27979732  0.23827575  0.12516827    -0.89600
H614        H  0.30926686  0.17673795  0.13699428     0.18100
H615        H  0.20103919  0.16862451  0.06773868     0.18100
N616        N  0.23025072  0.10688590  0.08057886    -0.88700
H617        H  0.30389215  0.23545924  0.13747636     0.35400
H618        H  0.26265339  0.24669212  0.14418472     0.40500
H619        H  0.24797719  0.09647931  0.06317055     0.40200
H620        H  0.20689903  0.10979680  0.06690328     0.35000
C621        C  0.35176094  0.93500992  0.15031640    -0.26700
C622        C  0.32823411  0.95576933  0.13140868    -0.14800
C623        C  0.31210402  0.94205447  0.10150441     0.35900
C624        C  0.32038407  0.90819276  0.09092689    -0.26100
C625        C  0.34492689  0.88805782  0.10916138    -0.15400
C626        C  0.36072545  0.90160667  0.13926951     0.37000
N627        N  0.38517486  0.88116520  0.15907938    -0.89600
H628        H  0.36403260  0.94527664  0.17339248     0.18100
H629        H  0.30797854  0.89762316  0.06805744     0.18100
N630        N  0.28722697  0.96233923  0.08214808    -0.88700
H631        H  0.39212899  0.89380760  0.18194262     0.35400
H632        H  0.40783442  0.87940535  0.14455024     0.40500
H633        H  0.26587128  0.96628416  0.09814553     0.40200
H634        H  0.27818359  0.94864633  0.06064991     0.35000
C635        C  0.47203926  0.07343441  0.21241985    -0.26700
C636        C  0.48493394  0.10432216  0.19781997    -0.14800
C637        C  0.46276886  0.12444510  0.17610872     0.35900
C638        C  0.42856643  0.11330167  0.16968246    -0.26100
C639        C  0.41542652  0.08306302  0.18516628    -0.15400
C640        C  0.43751650  0.06275553  0.20655699     0.37000
N641        N  0.42501908  0.03105955  0.22176281    -0.89600
H642        H  0.48888573  0.05770190  0.22878648     0.18100
H643        H  0.41174823  0.12880250  0.15304805     0.18100
N644        N  0.47518066  0.15568192  0.15987317    -0.88700
H645        H  0.44443919  0.01910136  0.23670228     0.35400
H646        H  0.41919906  0.01414057  0.20152611     0.40500
H647        H  0.47807722  0.17420426  0.17926099     0.40200
H648        H  0.45666153  0.16572147  0.14254415     0.35000
C649        C  0.75416690  0.79934997  0.91155968    -0.26700
C650        C  0.76892675  0.83216671  0.91716154    -0.14800
C651        C  0.80110116  0.83390923  0.93496033     0.35900
C652        C  0.81795236  0.80337400  0.94552071    -0.26100
C653        C  0.80428307  0.77053743  0.93803172    -0.15400
C654        C  0.77145286  0.76857580  0.92162431     0.37000
N655        N  0.75626345  0.73550010  0.91408445    -0.89600
H656        H  0.72948062  0.79759819  0.89812871     0.18100
H657        H  0.84308752  0.80548515  0.95802142     0.18100
N658        N  0.81849739  0.86604916  0.94096905    -0.88700
H659        H  0.73261038  0.73862985  0.90101007     0.35400
H660        H  0.75072507  0.72339474  0.93776759     0.40500
H661        H  0.80261370  0.88178933  0.95599487     0.40200
H662        H  0.82310269  0.87819301  0.91709943     0.35000
C663        C  0.60690527  0.90772844  0.81644749    -0.26700
C664        C  0.62433735  0.89297876  0.84517235    -0.14800
C665        C  0.60643583  0.86929512  0.86669477     0.35900
C666        C  0.57184609  0.86067583  0.85875762    -0.26100
C667        C  0.55438539  0.87547358  0.83010289    -0.15400
C668        C  0.57198702  0.89971171  0.80901925     0.37000
N669        N  0.55488302  0.91510860  0.77940672    -0.89600
H670        H  0.62050289  0.92590695  0.79988768     0.18100
H671        H  0.55840951  0.84207455  0.87499515     0.18100
N672        N  0.62359325  0.85341130  0.89606074    -0.88700
H673        H  0.57199765  0.93089864  0.76559996     0.35400
H674        H  0.53551610  0.93149363  0.78864476     0.40500
H675        H  0.64338395  0.83765140  0.88660905     0.40200
H676        H  0.60666234  0.83708061  0.90946903     0.35000
C677        C  0.60445137  0.26511495  0.86593558    -0.26700
C678        C  0.62316492  0.23420848  0.86138900    -0.14800
C679        C  0.62901575  0.22269090  0.82725138     0.35900
C680        C  0.61773663  0.24272941  0.79873719    -0.26100
C681        C  0.60083236  0.27458321  0.80316055    -0.15400
C682        C  0.59356508  0.28548123  0.83726821     0.37000
N683        N  0.57618434  0.31769657  0.84309236    -0.89600
H684        H  0.59963296  0.27444291  0.89186949     0.18100
H685        H  0.62355475  0.23376881  0.77288172     0.18100
N686        N  0.64709429  0.19090856  0.82120136    -0.88700
H687        H  0.59243197  0.33323400  0.85815815     0.35400
H688        H  0.55383064  0.31256959  0.85735748     0.40500
H689        H  0.66903784  0.19652715  0.80647463     0.40200
H690        H  0.63096002  0.17489483  0.80653692     0.35000
C691        C  0.73870485  0.30143736  0.94923942    -0.26700
C692        C  0.74854318  0.26820660  0.93836307    -0.14800
C693        C  0.77914542  0.26474876  0.91870000     0.35900
C694        C  0.79707097  0.29470346  0.90773142    -0.26100
C695        C  0.78575194  0.32808598  0.91670451    -0.15400
C696        C  0.75682345  0.33118953  0.93855724     0.37000
N697        N  0.74435821  0.36463021  0.94834349    -0.89600
H698        H  0.71560595  0.30467716  0.96464809     0.18100
H699        H  0.81955989  0.29197013  0.89135484     0.18100
N700        N  0.79137803  0.23103632  0.90898298    -0.88700
H701        H  0.74415599  0.36562616  0.97542717     0.35400
H702        H  0.71883401  0.36721282  0.93940340     0.40500
H703        H  0.79875185  0.21794779  0.93175338     0.40200
H704        H  0.81364571  0.23309242  0.89385547     0.35000
C705        C  0.72778560  0.03232661  0.92518868    -0.26700
C706        C  0.71160898  0.01891792  0.89546471    -0.14800
C707        C  0.68789803  0.03999054  0.87679179     0.35900
C708        C  0.68055445  0.07366252  0.88816410    -0.26100
C709        C  0.69714456  0.08735597  0.91747612    -0.15400
C710        C  0.72112492  0.06646808  0.93616616     0.37000
N711        N  0.73830771  0.07980610  0.96641542    -0.89600
H712        H  0.74594907  0.01624228  0.93967887     0.18100
H713        H  0.66215629  0.08940736  0.87357325     0.18100
N714        N  0.67060394  0.02705008  0.84658602    -0.88700
H715        H  0.75539830  0.06136755  0.97692411     0.35400
H716        H  0.71943604  0.08416874  0.98516054     0.40500
H717        H  0.67625755  0.04354381  0.82572454     0.40200
H718        H  0.64391816  0.02810258  0.85083449     0.35000
C719        C  0.61044744  0.18530465  0.05844874    -0.26700
C720        C  0.63940856  0.16764494  0.04551578    -0.14800
C721        C  0.65615084  0.14276332  0.06723678     0.35900
C722        C  0.64403817  0.13659342  0.10091201    -0.26100
C723        C  0.61601934  0.15525709  0.11431859    -0.15400
C724        C  0.59899697  0.17984200  0.09258906     0.37000
N725        N  0.56962216  0.19914362  0.10414543    -0.89600
H726        H  0.59707510  0.20417861  0.04218273     0.18100
H727        H  0.65721263  0.11744845  0.11704142     0.18100
N728        N  0.68505566  0.12272946  0.05570723    -0.88700
H729        H  0.57727728  0.21462481  0.12487102     0.35400
H730        H  0.55074654  0.18169428  0.11269923     0.40500
H731        H  0.70574943  0.13935867  0.05063807     0.40200
H732        H  0.67797334  0.11004759  0.03290229     0.35000
C733        C  0.95943712  0.76805125  0.83255752    -0.26700
C734        C  0.94662961  0.75766467  0.80000558    -0.14800
C735        C  0.92625577  0.72719233  0.79836245     0.35900
C736        C  0.91630004  0.71045638  0.82901624    -0.26100
C737        C  0.92640724  0.72283050  0.86169778    -0.15400
C738        C  0.94998481  0.75069503  0.86336726     0.37000
N739        N  0.96313939  0.76224934  0.89624289    -0.89600
H740        H  0.97590647  0.79066853  0.83418355     0.18100
H741        H  0.89918938  0.68831530  0.82717633     0.18100
N742        N  0.91423215  0.71304752  0.76625008    -0.88700
H743        H  0.97946257  0.78357720  0.89290920     0.35400
H744        H  0.97857092  0.74231006  0.90657014     0.40500
H745        H  0.93561422  0.70823891  0.75053084     0.40200
H746        H  0.89771214  0.73087874  0.75398327     0.35000
C747        C  0.83290272  0.86857591  0.74761853    -0.26700
C748        C  0.86607543  0.88126100  0.75556964    -0.14800
C749        C  0.86923363  0.90774284  0.78033805     0.35900
C750        C  0.83981470  0.91903758  0.79842120    -0.26100
C751        C  0.80694430  0.90458594  0.79216036    -0.15400
C752        C  0.80336365  0.87996794  0.76540398     0.37000
N753        N  0.77012745  0.86513818  0.75753319    -0.89600
H754        H  0.83008196  0.84867491  0.72818723     0.18100
H755        H  0.84303784  0.93824435  0.81848837     0.18100
N756        N  0.90242509  0.92218297  0.78842673    -0.88700
H757        H  0.77230435  0.84616976  0.73849988     0.35400
H758        H  0.75467023  0.88482064  0.74677713     0.40500
H759        H  0.90742873  0.91795678  0.81482330     0.40200
H760        H  0.90112305  0.94892688  0.78401998     0.35000
C761        C  0.28539976  0.83020174  0.58794643    -0.26700
C762        C  0.26082544  0.82592817  0.61431737    -0.14800
C763        C  0.25570422  0.79252013  0.62858608     0.35900
C764        C  0.27664774  0.76485538  0.61822388    -0.26100
C765        C  0.30304025  0.76960403  0.59386422    -0.15400
C766        C  0.30654129  0.80240180  0.57748406     0.37000
N767        N  0.33210672  0.80771396  0.55107876    -0.89600
H768        H  0.28925944  0.85565707  0.57655170     0.18100
H769        H  0.27311993  0.73979274  0.63059672     0.18100
N770        N  0.22981774  0.78659666  0.65435662    -0.88700
H771        H  0.33177593  0.83342413  0.54226735     0.35400
H772        H  0.32508067  0.79248306  0.52989270     0.40500
H773        H  0.24207511  0.77691543  0.67672745     0.40200
H774        H  0.21292346  0.76757784  0.64518158     0.35000
C775        C  0.33414703  0.88108363  0.78065794    -0.26700
C776        C  0.36698090  0.88860860  0.76713509    -0.14800
C777        C  0.36911118  0.90763324  0.73573763     0.35900
C778        C  0.33850057  0.91657906  0.71753069    -0.26100
C779        C  0.30561866  0.90737806  0.73007436    -0.15400
C780        C  0.30349638  0.89039823  0.76272160     0.37000
N781        N  0.27043364  0.88163961  0.77723376    -0.89600
H782        H  0.33239392  0.86677831  0.80490527     0.18100
H783        H  0.34046806  0.92985603  0.69273868     0.18100
N784        N  0.40229855  0.91600103  0.72131049    -0.88700
H785        H  0.27345501  0.87162946  0.80237712     0.35400
H786        H  0.26002052  0.86158431  0.76243789     0.40500
H787        H  0.41397445  0.93410178  0.73761903     0.40200
H788        H  0.39935223  0.92826768  0.69715719     0.35000
C789        C  0.06642343  0.88959770  0.71753912    -0.26700
C790        C  0.04977739  0.86583351  0.69576555    -0.14800
C791        C  0.06691836  0.85427007  0.66577188     0.35900
C792        C  0.10087633  0.86549860  0.65904329    -0.26100
C793        C  0.11827875  0.88786396  0.68174529    -0.15400
C794        C  0.10054398  0.90067172  0.71093186     0.37000
N795        N  0.11715026  0.92490122  0.73370752    -0.89600
H796        H  0.05306749  0.89889555  0.74024236     0.18100
H797        H  0.11411582  0.85606759  0.63632684     0.18100
N798        N  0.04973252  0.83120343  0.64218541    -0.88700
H799        H  0.10071450  0.93154496  0.75402579     0.35400
H800        H  0.12149446  0.94765750  0.71948321     0.40500
H801        H  0.06587490  0.82506199  0.62149313     0.40200
H802        H  0.02843582  0.84443629  0.63152676     0.35000
C803        C  0.78559649  0.16590045  0.41759566    -0.26700
C804        C  0.77015141  0.13305872  0.42011329    -0.14800
C805        C  0.73749663  0.13016704  0.43623299     0.35900
C806        C  0.72035998  0.16033548  0.44753367    -0.26100
C807        C  0.73479970  0.19348598  0.44270626    -0.15400
C808        C  0.76857914  0.19600000  0.42899167     0.37000
N809        N  0.78497554  0.22919770  0.42513259    -0.89600
H810        H  0.81084286  0.16823480  0.40574727     0.18100
H811        H  0.69467123  0.15804661  0.45839812     0.18100
N812        N  0.72087873  0.09700160  0.43931846    -0.88700
H813        H  0.80917143  0.22664947  0.41345197     0.35400
H814        H  0.78964812  0.23869995  0.45003428     0.40500
H815        H  0.71479970  0.08871591  0.41425771     0.40200
H816        H  0.69735696  0.09928377  0.45235160     0.35000
C817        C  0.70150566  0.07948148  0.24509952    -0.26700
C818        C  0.66865436  0.07757757  0.26049459    -0.14800
C819        C  0.66610340  0.06267916  0.29411793     0.35900
C820        C  0.69615485  0.05184147  0.31188893    -0.26100
C821        C  0.72922339  0.05606461  0.29743829    -0.15400
C822        C  0.73173194  0.06900420  0.26311785     0.37000
N823        N  0.76499141  0.07256807  0.24701712    -0.89600
H824        H  0.70381637  0.09046384  0.21924972     0.18100
H825        H  0.69367557  0.04198588  0.33816697     0.18100
N826        N  0.63376209  0.06006420  0.31186654    -0.88700
H827        H  0.76238903  0.08309711  0.22203324     0.35400
H828        H  0.77525859  0.04768407  0.24416880     0.40500
H829        H  0.61694644  0.04478863  0.29718390     0.40200
H830        H  0.62323553  0.08489199  0.31433021     0.35000
C831        C  0.23603762  0.30494609  0.57842704    -0.26700
C832        C  0.24456552  0.27205661  0.59227481    -0.14800
C833        C  0.27291252  0.26954383  0.61555990     0.35900
C834        C  0.28993888  0.29965500  0.62674188    -0.26100
C835        C  0.28004923  0.33273172  0.61467036    -0.15400
C836        C  0.25380557  0.33519410  0.58891260     0.37000
N837        N  0.24402340  0.36841854  0.57475939    -0.89600
H838        H  0.21469990  0.30725058  0.56012370     0.18100
H839        H  0.31054115  0.29710590  0.64586870     0.18100
N840        N  0.28380871  0.23656881  0.62911483    -0.88700
H841        H  0.22342098  0.36587440  0.55720802     0.35400
H842        H  0.26497726  0.37766556  0.56040510     0.40500
H843        H  0.28193846  0.23715609  0.65613765     0.40200
H844        H  0.30985802  0.23305055  0.62281318     0.35000
C845        C  0.10255835  0.25679062  0.66612461    -0.26700
C846        C  0.12564870  0.22890025  0.67049916    -0.14800
C847        C  0.13569940  0.21872399  0.70445342     0.35900
C848        C  0.12492596  0.23845768  0.73286119    -0.26100
C849        C  0.10406170  0.26801631  0.72826870    -0.15400
C850        C  0.09171074  0.27638606  0.69463397     0.37000
N851        N  0.06858541  0.30501544  0.68914201    -0.89600
H852        H  0.09412603  0.26449316  0.64029600     0.18100
H853        H  0.13400350  0.23137245  0.75863917     0.18100
N854        N  0.15730615  0.18874673  0.70997949    -0.88700
H855        H  0.04594207  0.29562043  0.67755778     0.35400
H856        H  0.08014164  0.32229831  0.67171507     0.40500
H857        H  0.14325599  0.16711556  0.70185249     0.40200
H858        H  0.16254227  0.18498761  0.73639813     0.35000
C859        C  0.18005191  0.03435084  0.64735488    -0.26700
C860        C  0.20448877  0.01483993  0.62899960    -0.14800
C861        C  0.22162856  0.03077952  0.60072674     0.35900
C862        C  0.21484992  0.06564863  0.59232016    -0.26100
C863        C  0.19036278  0.08514462  0.61062283    -0.15400
C864        C  0.17220899  0.06892573  0.63807792     0.37000
N865        N  0.14650195  0.08770299  0.65709172    -0.89600
H866        H  0.16648576  0.02235329  0.66882147     0.18100
H867        H  0.22871698  0.07754163  0.57099520     0.18100
N868        N  0.24662819  0.01262019  0.58052466    -0.88700
H869        H  0.13734296  0.07276030  0.67783242     0.35400
H870        H  0.12528930  0.09166928  0.64048975     0.40500
H871        H  0.23439976  0.99174170  0.56851288     0.40200
H872        H  0.26613832  0.00325631  0.59709553     0.35000
C873        C  0.23299993  0.08221633  0.26392675    -0.26700
C874        C  0.22876013  0.06253487  0.23377126    -0.14800
C875        C  0.19498099  0.05180945  0.22439057     0.35900
C876        C  0.16621342  0.06340889  0.24339100    -0.26100
C877        C  0.17036155  0.08558282  0.27182764    -0.15400
C878        C  0.20435924  0.09377987  0.28303480     0.37000
N879        N  0.20978896  0.11467530  0.31324997    -0.89600
H880        H  0.25878515  0.08996234  0.27190096     0.18100
H881        H  0.14043034  0.05623702  0.23483692     0.18100
N882        N  0.18955751  0.02987469  0.19511082    -0.88700
H883        H  0.23619368  0.11893901  0.31755152     0.35400
H884        H  0.20087717  0.10056199  0.33467083     0.40500
H885        H  0.17311995  0.04278967  0.17757679     0.40200
H886        H  0.17692156  0.00748285  0.20370110     0.35000
C887        C  0.07705497  0.20299061  0.20003609    -0.26700
C888        C  0.09001844  0.21118310  0.23316561    -0.14800
C889        C  0.11113502  0.24084031  0.23673233     0.35900
C890        C  0.12196952  0.25895707  0.20689518    -0.26100
C891        C  0.11163651  0.24879302  0.17348847    -0.15400
C892        C  0.08756993  0.22142879  0.17016440     0.37000
N893        N  0.07522248  0.21117925  0.13652399    -0.89600
H894        H  0.06015949  0.18082073  0.19713190     0.18100
H895        H  0.13967732  0.28050048  0.20972286     0.18100
N896        N  0.12294775  0.25157336  0.27039838    -0.88700
H897        H  0.05668349  0.19159961  0.13882080     0.35400
H898        H  0.09609765  0.20031915  0.12335903     0.40500
H899        H  0.10122320  0.25974007  0.28413447     0.40200
H900        H  0.13923427  0.27308998  0.26833513     0.35000
C901        C  0.96062611  0.12396093  0.34505891    -0.26700
C902        C  0.98270155  0.10256578  0.32585093    -0.14800
C903        C  0.96958449  0.07081306  0.31320801     0.35900
C904        C  0.93534474  0.06075861  0.32132330    -0.26100
C905        C  0.91397471  0.08169824  0.34177623    -0.15400
C906        C  0.92685121  0.11384319  0.35331578     0.37000
N907        N  0.90592543  0.13720888  0.37282436    -0.89600
H908        H  0.96989790  0.14865306  0.35445833     0.18100
H909        H  0.92538338  0.03632435  0.31194062     0.18100
N910        N  0.99073343  0.04915003  0.29186148    -0.88700
H911        H  0.89932744  0.12523808  0.39626218     0.35400
H912        H  0.88325368  0.14247629  0.35869343     0.40500
H913        H  0.99537511  0.06274624  0.26878211     0.40200
H914        H  0.97732744  0.02668912  0.28498957     0.35000
C915        C  0.09985719  0.18404273  0.43336344    -0.26700
C916        C  0.11390612  0.15553352  0.41579448    -0.14800
C917        C  0.13953716  0.13519728  0.43289849     0.35900
C918        C  0.15109761  0.14445983  0.46634572    -0.26100
C919        C  0.13675166  0.17265837  0.48401372    -0.15400
C920        C  0.11044715  0.19236851  0.46726656     0.37000
N921        N  0.09469962  0.22155789  0.48354884    -0.89600
H922        H  0.08021217  0.19992665  0.42072820     0.18100
H923        H  0.17107004  0.12904239  0.47905361     0.18100
N924        N  0.15449159  0.10573674  0.41605690    -0.88700
H925        H  0.11417121  0.23895320  0.49062162     0.35400
H926        H  0.08211828  0.21297768  0.50591952     0.40500
H927        H  0.13541968  0.08659501  0.41483713     0.40200
H928        H  0.17468478  0.09523920  0.43106417     0.35000
C929        C  0.77142476  0.69654273  0.42330717    -0.26700
C930        C  0.80303904  0.69205835  0.44103383    -0.14800
C931        C  0.81465178  0.65799698  0.44857832     0.35900
C932        C  0.79546438  0.62940921  0.43673939    -0.26100
C933        C  0.76524402  0.63416766  0.41674114    -0.15400
C934        C  0.75261353  0.66810648  0.41084140     0.37000
N935        N  0.72120932  0.67367149  0.39124022    -0.89600
H936        H  0.76208877  0.72247494  0.41756779     0.18100
H937        H  0.80539550  0.60348436  0.44144475     0.18100
N938        N  0.84660234  0.65220522  0.46689345    -0.88700
H939        H  0.71604258  0.70014136  0.38824249     0.35400
H940        H  0.70084813  0.66321764  0.40562207     0.40500
H941        H  0.86300162  0.63799509  0.45090757     0.40200
H942        H  0.84140431  0.63712104  0.48890641     0.35000
C943        C  0.94279977  0.71352349  0.36431818    -0.26700
C944        C  0.91926694  0.74099053  0.35970047    -0.14800
C945        C  0.91031681  0.75163452  0.32550432     0.35900
C946        C  0.92292490  0.73319975  0.29719967    -0.26100
C947        C  0.94378583  0.70366734  0.30193765    -0.15400
C948        C  0.95491436  0.69465434  0.33586743     0.37000
N949        N  0.97733637  0.66554421  0.34181870    -0.89600
H950        H  0.95031493  0.70530018  0.39027371     0.18100
H951        H  0.91470085  0.74103390  0.27134204     0.18100
N952        N  0.88828989  0.78085341  0.31855133    -0.88700
H953        H  0.99945560  0.67423663  0.35489427     0.35400
H954        H  0.96458634  0.64795578  0.35804490     0.40500
H955        H  0.89836558  0.80235896  0.33142523     0.40200
H956        H  0.86349056  0.77557829  0.32777367     0.35000
C957        C  0.87018736  0.89634873  0.39511406    -0.26700
C958        C  0.85008094  0.88058628  0.42099851    -0.14800
C959        C  0.82429393  0.90034632  0.43757299     0.35900
C960        C  0.81887045  0.93518879  0.42749189    -0.26100
C961        C  0.83761452  0.95032884  0.40025089    -0.15400
C962        C  0.86392830  0.93078686  0.38420486     0.37000
N963        N  0.88423618  0.94596034  0.35692913    -0.89600
H964        H  0.89027227  0.88139615  0.38266269     0.18100
H965        H  0.79894107  0.95021845  0.44007154     0.18100
N966        N  0.80412149  0.88527670  0.46500139    -0.88700
H967        H  0.90223152  0.92808196  0.34765344     0.35400
H968        H  0.89848928  0.96627861  0.36763628     0.40500
H969        H  0.78759319  0.86701545  0.45386199     0.40200
H970        H  0.78805926  0.90394061  0.47602646     0.35000
C971        C  0.92599140  0.77248338  0.56301499    -0.26700
C972        C  0.90067121  0.79360793  0.54729080    -0.14800
C973        C  0.88718912  0.82197737  0.56570293     0.35900
C974        C  0.89868770  0.82801631  0.59977914    -0.26100
C975        C  0.92339231  0.80637776  0.61600218    -0.15400
C976        C  0.93730994  0.77833953  0.59706762     0.37000
N977        N  0.96330729  0.75567230  0.61129808    -0.89600
H978        H  0.93674464  0.75089619  0.54888540     0.18100
H979        H  0.88809376  0.84974235  0.61379929     0.18100
N980        N  0.86234980  0.84494542  0.54953701    -0.88700
H981        H  0.95311394  0.74263250  0.63279744     0.35400
H982        H  0.98454384  0.77050290  0.61907478     0.40500
H983        H  0.87459848  0.85735283  0.52877868     0.40200
H984        H  0.85493561  0.86441463  0.56664250     0.35000
loop_ 
_geom_bond_atom_site_label_1 
_geom_bond_atom_site_label_2 
_geom_bond_distance 
_geom_bond_site_symmetry_2 
_ccdc_geom_bond_type 
In1           O3   2.227       .  S
In1           O4   2.262       .  S
In1          O12   2.254       .  S
In1           O6   2.250       .  S
In1           O8   2.248       .  S
In1           O9   2.254       .  S
In1          O10   2.253       .  S
In1          O13   2.237       .  S
C2            O8   1.263       .  A
C2           O10   1.260       .  A
C2          C930   1.488       .  S
O3           C11   1.259       .  A
O4           C11   1.265       .  A
C5           O12   1.263       .  A
C5            O6   1.263       .  A
C5          C958   1.487       .  S
C7            O9   1.263       .  A
C7           O13   1.260       .  A
C7          C972   1.479       .  S
C11         C944   1.483       .  S
In14         O16   2.241       .  S
In14         O17   2.282       .  S
In14         O25   2.267       .  S
In14         O19   2.268       .  S
In14         O21   2.261       .  S
In14         O22   2.285       .  S
In14         O23   2.264       .  S
In14         O26   2.251       .  S
C15          O21   1.260       .  A
C15          O23   1.260       .  A
C15         C888   1.493       .  S
O16          C24   1.259       .  A
O17          C24   1.265       .  A
C18          O25   1.263       .  A
C18          O19   1.263       .  A
C18         C916   1.497       .  S
C20          O22   1.263       .  A
C20          O26   1.260       .  A
C20         C902   1.495   1_455  S
C24         C877   1.494       .  S
In27         O29   2.259       .  S
In27         O30   2.269       .  S
In27         O38   2.252       .  S
In27         O32   2.275       .  S
In27         O34   2.265       .  S
In27         O35   2.265       .  S
In27         O36   2.231       .  S
In27         O39   2.275       .  S
C28          O34   1.266       .  A
C28          O36   1.261       .  A
C28         C846   1.485       .  S
O29          C37   1.261       .  A
O30          C37   1.264       .  A
C31          O38   1.261       .  A
C31          O32   1.264       .  A
C31         C919   1.492       .  S
C33          O35   1.262       .  A
C33          O39   1.261       .  A
C33         C832   1.499       .  S
C37         C863   1.493       .  S
In40         O42   2.253       .  S
In40         O43   2.264       .  S
In40         O51   2.260   1_545  S
In40         O45   2.276       .  S
In40         O47   2.281       .  S
In40         O48   2.263       .  S
In40         O49   2.252       .  S
In40         O52   2.265       .  S
C41          O47   1.264       .  A
C41          O49   1.260       .  A
C41         C804   1.494       .  S
O42          C50   1.263       .  A
O43          C50   1.263       .  A
C44          O51   1.260       .  A
C44          O45   1.263   1_565  A
C44         C961   1.489       .  S
C46          O48   1.261       .  A
C46          O52   1.260       .  A
C46         C821   1.493       .  S
C50         C905   1.487       .  S
In53         O55   2.229       .  S
In53         O56   2.269       .  S
In53         O64   2.254       .  S
In53         O58   2.247       .  S
In53         O60   2.255       .  S
In53         O61   2.267       .  S
In53         O62   2.257       .  S
In53         O65   2.246       .  S
C54          O60   1.261       .  A
C54          O62   1.261       .  A
C54         C779   1.494       .  S
O55          C63   1.260       .  A
O56          C63   1.266       .  A
C57          O64   1.264       .  A
C57          O58   1.263       .  A
C57         C793   1.487       .  S
C59          O61   1.263       .  A
C59          O65   1.260       .  A
C59         C860   1.492   1_565  S
C63         C762   1.488       .  S
In66         O68   2.242       .  S
In66         O69   2.242       .  S
In66         O77   2.244   1_655  S
In66         O71   2.274       .  S
In66         O73   2.265       .  S
In66         O74   2.255       .  S
In66         O75   2.239       .  S
In66         O78   2.257       .  S
C67          O73   1.265       .  A
C67          O75   1.261       .  A
C67         C748   1.490       .  S
O68          C76   1.263       .  A
O69          C76   1.261       .  A
C70          O77   1.258       .  A
C70          O71   1.262   1_455  A
C70         C790   1.484       .  S
C72          O74   1.258       .  A
C72          O78   1.260       .  A
C72         C734   1.491       .  S
C76         C975   1.486       .  S
In79         O81   2.239       .  S
In79         O82   2.279       .  S
In79         O90   2.255       .  S
In79         O84   2.251       .  S
In79         O86   2.264       .  S
In79         O87   2.283       .  S
In79         O88   2.262       .  S
In79         O91   2.249   1_556  S
C80          O86   1.260       .  A
C80          O88   1.260       .  A
C80         C692   1.494       .  S
O81          C89   1.259       .  A
O82          C89   1.265       .  A
C83          O90   1.264       .  A
C83          O84   1.263       .  A
C83         C709   1.486       .  S
C85          O87   1.263   1_554  A
C85          O91   1.258       .  A
C85         C720   1.492       .  S
C89         C678   1.493       .  S
In92         O94   2.250       .  S
In92         O95   2.257       .  S
In92        O103   2.246       .  S
In92         O97   2.272       .  S
In92         O99   2.261       .  S
In92        O100   2.251       .  S
In92        O101   2.244       .  S
In92        O104   2.267       .  S
C93          O99   1.264       .  A
C93         O101   1.260       .  A
C93         C650   1.492       .  S
O94         C102   1.263       .  A
O95         C102   1.264       .  A
C96         O103   1.260       .  A
C96          O97   1.263       .  A
C96         C706   1.487   1_565  S
C98         O100   1.261       .  A
C98         O104   1.261       .  A
C98         C751   1.493       .  S
C102        C664   1.490       .  S
In105       O107   2.230       .  S
In105       O108   2.269       .  S
In105       O116   2.258       .  S
In105       O110   2.267       .  S
In105       O112   2.264       .  S
In105       O113   2.266       .  S
In105       O114   2.267       .  S
In105       O117   2.247       .  S
C106        O112   1.262       .  A
C106        O114   1.259       .  A
C106        C874   1.494       .  S
O107        C115   1.261       .  A
O108        C115   1.265       .  A
C109        O116   1.262       .  A
C109        O110   1.264       .  A
C109        C639   1.490       .  S
C111        O113   1.263   1_565  A
C111        O117   1.260   1_565  A
C111        C622   1.487       .  S
C115        C608   1.488       .  S
In118       O120   2.250       .  S
In118       O121   2.258       .  S
In118       O129   2.256       .  S
In118       O123   2.281       .  S
In118       O125   2.265       .  S
In118       O126   2.267       .  S
In118       O127   2.245       .  S
In118       O130   2.262       .  S
C119        O125   1.264       .  A
C119        O127   1.260       .  A
C119        C818   1.492       .  S
O120        C128   1.263       .  A
O121        C128   1.264       .  A
C122        O129   1.260       .  A
C122        O123   1.263       .  A
C122        C636   1.496       .  S
C124        O126   1.261       .  A
C124        O130   1.260       .  A
C124        C594   1.497       .  S
C128        C723   1.488       .  S
In131       O133   2.232       .  S
In131       O134   2.255       .  S
In131       O142   2.240       .  S
In131       O136   2.273       .  S
In131       O138   2.257       .  S
In131       O139   2.247       .  S
In131       O140   2.231       .  S
In131       O143   2.251       .  S
C132        O138   1.265       .  A
C132        O140   1.260       .  A
C132        C555   1.482       .  S
O133        C141   1.261       .  A
O134        C141   1.263       .  A
C135        O142   1.260       .  A
C135        O136   1.262       .  A
C135        C580   1.485   1_554  S
C137        O139   1.260       .  A
C137        O143   1.260       .  A
C137        C569   1.486       .  S
C141        C625   1.481       .  S
In144       O146   2.249       .  S
In144       O147   2.266       .  S
In144       O155   2.251       .  S
In144       O149   2.261       .  S
In144       O151   2.266       .  S
In144       O152   2.277       .  S
In144       O153   2.261       .  S
In144       O156   2.248       .  S
C145        O151   1.263       .  A
C145        O153   1.260       .  A
C145        C538   1.494       .  S
O146        C154   1.262       .  A
O147        C154   1.265       .  A
C148        O155   1.263       .  A
C148        O149   1.264       .  A
C148        C583   1.488       .  S
C150        O152   1.264       .  A
C150        O156   1.260       .  A
C150        C667   1.489       .  S
C154        C776   1.490       .  S
In157       O159   2.243       .  S
In157       O160   2.251       .  S
In157       O168   2.240   1_556  S
In157       O162   2.263       .  S
In157       O164   2.265       .  S
In157       O165   2.267       .  S
In157       O166   2.229       .  S
In157       O169   2.249       .  S
C158        O164   1.264       .  A
C158        O166   1.259       .  A
C158        C737   1.487       .  S
O159        C167   1.263       .  A
O160        C167   1.265       .  A
C161        O168   1.260       .  A
C161        O162   1.263   1_554  A
C161        C524   1.482       .  S
C163        O165   1.262       .  A
C163        O169   1.260       .  A
C163        C653   1.492       .  S
C167        C510   1.483       .  S
In170       O172   2.243       .  S
In170       O173   2.266       .  S
In170       O181   2.242       .  S
In170       O175   2.250       .  S
In170       O177   2.249       .  S
In170       O178   2.269       .  S
In170       O179   2.247       .  S
In170       O182   2.234   1_655  S
C171        O177   1.262       .  A
C171        O179   1.259       .  A
C171        C947   1.486       .  S
O172        C180   1.260       .  A
O173        C180   1.264       .  A
C174        O181   1.263       .  A
C174        O175   1.263       .  A
C174        C527   1.484       .  S
C176        O178   1.265   1_455  A
C176        O182   1.259       .  A
C176        C499   1.488       .  S
C180        C482   1.491       .  S
In183       O185   2.250       .  S
In183       O186   2.262       .  S
In183       O194   2.240       .  S
In183       O188   2.245       .  S
In183       O190   2.252       .  S
In183       O191   2.277       .  S
In183       O192   2.248       .  S
In183       O195   2.254       .  S
C184        O190   1.260       .  A
C184        O192   1.260       .  A
C184        C454   1.488       .  S
O185        C193   1.261       .  A
O186        C193   1.266       .  A
C187        O194   1.263       .  A
C187        O188   1.262       .  A
C187        C468   1.479       .  S
C189        O191   1.263       .  A
C189        O195   1.258       .  A
C189        C513   1.489       .  S
C193        C695   1.492       .  S
In196       O198   2.244       .  S
In196       O199   2.272       .  S
In196       O207   2.268       .  S
In196       O201   2.245       .  S
In196       O203   2.264       .  S
In196       O204   2.262       .  S
In196       O205   2.253       .  S
In196       O208   2.249       .  S
C197        O203   1.262       .  A
C197        O205   1.260       .  A
C197        C611   1.490       .  S
O198        C206   1.259       .  A
O199        C206   1.263       .  A
C200        O207   1.263       .  A
C200        O201   1.261       .  A
C200        C440   1.489       .  S
C202        O204   1.263       .  A
C202        O208   1.261       .  A
C202        C429   1.492   1_554  S
C206        C891   1.491       .  S
In209       O211   2.242       .  S
In209       O212   2.265       .  S
In209       O220   2.244       .  S
In209       O214   2.270       .  S
In209       O216   2.262       .  S
In209       O217   2.248       .  S
In209       O218   2.228       .  S
In209       O221   2.253       .  S
C210        O216   1.266       .  A
C210        O218   1.260       .  A
C210        C566   1.485       .  S
O211        C219   1.260       .  A
O212        C219   1.263       .  A
C213        O220   1.260       .  A
C213        O214   1.263       .  A
C213        C443   1.488       .  S
C215        O217   1.264       .  A
C215        O221   1.262       .  A
C215        C415   1.493       .  S
C219        C496   1.482       .  S
In222       O224   2.246       .  S
In222       O225   2.255       .  S
In222       O233   2.245       .  S
In222       O227   2.266       .  S
In222       O229   2.266       .  S
In222       O230   2.246       .  S
In222       O231   2.229       .  S
In222       O234   2.258       .  S
C223        O229   1.266       .  A
C223        O231   1.260       .  A
C223        C401   1.487       .  S
O224        C232   1.262       .  A
O225        C232   1.262       .  A
C226        O233   1.259       .  A
C226        O227   1.263       .  A
C226        C471   1.485   1_455  S
C228        O230   1.261       .  A
C228        O234   1.260       .  A
C228        C849   1.486       .  S
C232        C426   1.477       .  S
In235       O237   2.252       .  S
In235       O238   2.270       .  S
In235       O246   2.239       .  S
In235       O240   2.281       .  S
In235       O242   2.278       .  S
In235       O243   2.256       .  S
In235       O244   2.244       .  S
In235       O247   2.262       .  S
C236        O242   1.267       .  A
C236        O244   1.262       .  A
C236        C835   1.497       .  S
O237        C245   1.261       .  A
O238        C245   1.262       .  A
C239        O246   1.259       .  A
C239        O240   1.264       .  A
C239        C384   1.494       .  S
C241        O243   1.262       .  A
C241        O247   1.260       .  A
C241        C398   1.491       .  S
C245        C370   1.487       .  S
In248       O250   2.235       .  S
In248       O251   2.257       .  S
In248       O259   2.258       .  S
In248       O253   2.249       .  S
In248       O255   2.252       .  S
In248       O256   2.267       .  S
In248       O257   2.260       .  S
In248       O260   2.247       .  S
C249        O255   1.262       .  A
C249        O257   1.260       .  A
C249        C681   1.491       .  S
O250        C258   1.258       .  A
O251        C258   1.263       .  A
C252        O259   1.264       .  A
C252        O253   1.264       .  A
C252        C356   1.489       .  S
C254        O256   1.263       .  A
C254        O260   1.262       .  A
C254        C373   1.492       .  S
C258        C457   1.483       .  S
In261       O263   2.240       .  S
In261       O264   2.275       .  S
In261       O272   2.259       .  S
In261       O266   2.268       .  S
In261       O268   2.283       .  S
In261       O269   2.251       .  S
In261       O270   2.244       .  S
In261       O273   2.254       .  S
C262        O268   1.265       .  A
C262        O270   1.260       .  A
C262        C597   1.497       .  S
O263        C271   1.261       .  A
O264        C271   1.265       .  A
C265        O272   1.260       .  A
C265        O266   1.262       .  A
C265        C359   1.486       .  S
C267        O269   1.265       .  A
C267        O273   1.263       .  A
C267        C807   1.496       .  S
C271        C345   1.491       .  S
In274       O276   2.222       .  S
In274       O277   2.271       .  S
In274       O285   2.255       .  S
In274       O279   2.291       .  S
In274       O281   2.263       .  S
In274       O282   2.269       .  S
In274       O283   2.252       .  S
In274       O286   2.254       .  S
C275        O281   1.264       .  A
C275        O283   1.260       .  A
C275        C485   1.496       .  S
O276        C284   1.260       .  A
O277        C284   1.265       .  A
C278        O285   1.259       .  A
C278        O279   1.265       .  A
C278        C331   1.496       .  S
C280        O282   1.261       .  A
C280        O286   1.259       .  A
C280        C342   1.485       .  S
C284        C933   1.483       .  S
In287       O289   2.256       .  S
In287       O290   2.259       .  S
In287       O298   2.251       .  S
In287       O292   2.272       .  S
In287       O294   2.266       .  S
In287       O295   2.258       .  S
In287       O296   2.246       .  S
In287       O299   2.253       .  S
C288        O294   1.265       .  A
C288        O296   1.260       .  A
C288        C412   1.486       .  S
O289        C297   1.263       .  A
O290        C297   1.263       .  A
C291        O298   1.261       .  A
C291        O292   1.265       .  A
C291        C328   1.499       .  S
C293        O295   1.262       .  A
C293        O299   1.259       .  A
C293        C552   1.489       .  S
C297        C317   1.489       .  S
In300       O302   2.249       .  S
In300       O303   2.272       .  S
In300       O311   2.255       .  S
In300       O305   2.258       .  S
In300       O307   2.255       .  S
In300       O308   2.281       .  S
In300       O309   2.256       .  S
In300       O312   2.250       .  S
C301        O307   1.260       .  A
C301        O309   1.258       .  A
C301        C765   1.487       .  S
O302        C310   1.261       .  A
O303        C310   1.264       .  A
C304        O311   1.263       .  A
C304        O305   1.262       .  A
C304        C387   1.486       .  S
C306        O308   1.264       .  A
C306        O312   1.257       .  A
C306        C314   1.490       .  S
C310        C541   1.492       .  S
C313        C314   1.405       .  A
C313        C318   1.413       .  A
C313        H320   1.084       .  S
C314        C315   1.417       .  A
C315        C316   1.402       .  A
C315        N322   1.433       .  S
C316        C317   1.404       .  A
C316        H321   1.084       .  S
C317        C318   1.415       .  A
C318        N319   1.438       .  S
N319        H323   1.045       .  S
N319        H324   1.045       .  S
N322        H325   1.044       .  S
N322        H326   1.046       .  S
C327        C328   1.409       .  A
C327        C332   1.415       .  A
C327        H334   1.083       .  S
C328        C329   1.420       .  A
C329        C330   1.403       .  A
C329        N336   1.433       .  S
C330        C331   1.405       .  A
C330        H335   1.084       .  S
C331        C332   1.414       .  A
C332        N333   1.437       .  S
N333        H337   1.042       .  S
N333        H338   1.049       .  S
N336        H339   1.045       .  S
N336        H340   1.045       .  S
C341        C342   1.405       .  A
C341        C346   1.411       .  A
C341        H348   1.084       .  S
C342        C343   1.410       .  A
C343        C344   1.408       .  A
C343        N350   1.437       .  S
C344        C345   1.407       .  A
C344        H349   1.084       .  S
C345        C346   1.415       .  A
C346        N347   1.437       .  S
N347        H351   1.046       .  S
N347        H352   1.045       .  S
N350        H353   1.046       .  S
N350        H354   1.046       .  S
C355        C356   1.405       .  A
C355        C360   1.404       .  A
C355        H362   1.084       .  S
C356        C357   1.415       .  A
C357        C358   1.410       .  A
C357        N364   1.438       .  S
C358        C359   1.403       .  A
C358        H363   1.084       .  S
C359        C360   1.415       .  A
C360        N361   1.433       .  S
N361        H365   1.043       .  S
N361        H366   1.048       .  S
N364        H367   1.047       .  S
N364        H368   1.045       .  S
C369        C370   1.406       .  A
C369        C374   1.414       .  A
C369        H376   1.084       .  S
C370        C371   1.411       .  A
C371        C372   1.406       .  A
C371        N378   1.438       .  S
C372        C373   1.405       .  A
C372        H377   1.083       .  S
C373        C374   1.416       .  A
C374        N375   1.438       .  S
N375        H379   1.046       .  S
N375        H380   1.045       .  S
N378        H381   1.046       .  S
N378        H382   1.046       .  S
C383        C384   1.408       .  A
C383        C388   1.407       .  A
C383        H390   1.083       .  S
C384        C385   1.416       .  A
C385        C386   1.412       .  A
C385        N392   1.437       .  S
C386        C387   1.405       .  A
C386        H391   1.084       .  S
C387        C388   1.410       .  A
C388        N389   1.438       .  S
N389        H393   1.046       .  S
N389        H394   1.046       .  S
N392        H395   1.045       .  S
N392        H396   1.046       .  S
C397        C398   1.405       .  A
C397        C402   1.403       .  A
C397        H404   1.084       .  S
C398        C399   1.417       .  A
C399        C400   1.411       .  A
C399        N406   1.437       .  S
C400        C401   1.405       .  A
C400        H405   1.083       .  S
C401        C402   1.412       .  A
C402        N403   1.433       .  S
N403        H407   1.045       .  S
N403        H408   1.046       .  S
N406        H409   1.046       .  S
N406        H410   1.046       .  S
C411        C412   1.404       .  A
C411        C416   1.409       .  A
C411        H418   1.084       .  S
C412        C413   1.409       .  A
C413        C414   1.407       .  A
C413        N420   1.432       .  S
C414        C415   1.408       .  A
C414        H419   1.084       .  S
C415        C416   1.416       .  A
C416        N417   1.437       .  S
N417        H421   1.046       .  S
N417        H422   1.045       .  S
N420        H423   1.046       .  S
N420        H424   1.045       .  S
C425        C426   1.402       .  A
C425        C430   1.410       .  A
C425        H432   1.084       .  S
C426        C427   1.416       .  A
C427        C428   1.403       .  A
C427        N434   1.440       .  S
C428        C429   1.407       .  A
C428        H433   1.084       .  S
C429        C430   1.417       .  A
C430        N431   1.437       .  S
N431        H435   1.046       .  S
N431        H436   1.045   1_556  S
N434        H437   1.043       .  S
N434        H438   1.046       .  S
C439        C440   1.406       .  A
C439        C444   1.412       .  A
C439        H446   1.084       .  S
C440        C441   1.413       .  A
C441        C442   1.407       .  A
C441        N448   1.438       .  S
C442        C443   1.404       .  A
C442        H447   1.084       .  S
C443        C444   1.414       .  A
C444        N445   1.437       .  S
N445        H449   1.046       .  S
N445        H450   1.045       .  S
N448        H451   1.046       .  S
N448        H452   1.045       .  S
C453        C454   1.406       .  A
C453        C458   1.406       .  A
C453        H460   1.083       .  S
C454        C455   1.415       .  A
C455        C456   1.406       .  A
C455        N462   1.438       .  S
C456        C457   1.405       .  A
C456        H461   1.084       .  S
C457        C458   1.412       .  A
C458        N459   1.438       .  S
N459        H463   1.046       .  S
N459        H464   1.046       .  S
N462        H465   1.045       .  S
N462        H466   1.046       .  S
C467        C468   1.402       .  A
C467        C472   1.406       .  A
C467        H474   1.084       .  S
C468        C469   1.414       .  A
C469        C470   1.402       .  A
C469        N476   1.433       .  S
C470        C471   1.405       .  A
C470        H475   1.084       .  S
C471        C472   1.415       .  A
C472        N473   1.438       .  S
N473        H477   1.047       .  S
N473        H478   1.045   1_655  S
N476        H479   1.046       .  S
N476        H480   1.044       .  S
C481        C482   1.406       .  A
C481        C486   1.402       .  A
C481        H488   1.084       .  S
C482        C483   1.416       .  A
C483        C484   1.404       .  A
C483        N490   1.433       .  S
C484        C485   1.409       .  A
C484        H489   1.084       .  S
C485        C486   1.418       .  A
C486        N487   1.432       .  S
N487        H491   1.047       .  S
N487        H492   1.044       .  S
N490        H493   1.042       .  S
N490        H494   1.049       .  S
C495        C496   1.402       .  A
C495        C500   1.402       .  A
C495        H502   1.084       .  S
C496        C497   1.412       .  A
C497        C498   1.412       .  A
C497        N504   1.437       .  S
C498        C499   1.406       .  A
C498        H503   1.083       .  S
C499        C500   1.413       .  A
C500        N501   1.433       .  S
N501        H505   1.046       .  S
N501        H506   1.046       .  S
N504        H507   1.046       .  S
N504        H508   1.045       .  S
C509        C510   1.403       .  A
C509        C514   1.409       .  A
C509        H516   1.084       .  S
C510        C511   1.411       .  A
C511        C512   1.410       .  A
C511        N518   1.437       .  S
C512        C513   1.405       .  A
C512        H517   1.083       .  S
C513        C514   1.416       .  A
C514        N515   1.438       .  S
N515        H519   1.046       .  S
N515        H520   1.045       .  S
N518        H521   1.046       .  S
N518        H522   1.045       .  S
C523        C524   1.404       .  A
C523        C528   1.409       .  A
C523        H530   1.084       .  S
C524        C525   1.413       .  A
C525        C526   1.406       .  A
C525        N532   1.438       .  S
C526        C527   1.403       .  A
C526        H531   1.084       .  S
C527        C528   1.414       .  A
C528        N529   1.438       .  S
N529        H533   1.046       .  S
N529        H534   1.046       .  S
N532        H535   1.045       .  S
N532        H536   1.046       .  S
C537        C538   1.407       .  A
C537        C542   1.411       .  A
C537        H544   1.083       .  S
C538        C539   1.412       .  A
C539        C540   1.410       .  A
C539        N546   1.437       .  S
C540        C541   1.406       .  A
C540        H545   1.084       .  S
C541        C542   1.415       .  A
C542        N543   1.438       .  S
N543        H547   1.045       .  S
N543        H548   1.046       .  S
N546        H549   1.046       .  S
N546        H550   1.046       .  S
C551        C552   1.405       .  A
C551        C556   1.407       .  A
C551        H558   1.083       .  S
C552        C553   1.414       .  A
C553        C554   1.404       .  A
C553        N560   1.432       .  S
C554        C555   1.402       .  A
C554        H559   1.084       .  S
C555        C556   1.414       .  A
C556        N557   1.438       .  S
N557        H561   1.045       .  S
N557        H562   1.046       .  S
N560        H563   1.045       .  S
N560        H564   1.046       .  S
C565        C566   1.405       .  A
C565        C570   1.403       .  A
C565        H572   1.084       .  S
C566        C567   1.414       .  A
C567        C568   1.409       .  A
C567        N574   1.437       .  S
C568        C569   1.406       .  A
C568        H573   1.083       .  S
C569        C570   1.411       .  A
C570        N571   1.433       .  S
N571        H575   1.046       .  S
N571        H576   1.045       .  S
N574        H577   1.045       .  S
N574        H578   1.046       .  S
C579        C580   1.405       .  A
C579        C584   1.413       .  A
C579        H586   1.084       .  S
C580        C581   1.409       .  A
C581        C582   1.403       .  A
C581        N588   1.433       .  S
C582        C583   1.403       .  A
C582        H587   1.084       .  S
C583        C584   1.416       .  A
C584        N585   1.437       .  S
N585        H589   1.046       .  S
N585        H590   1.046       .  S
N588        H591   1.045       .  S
N588        H592   1.046       .  S
C593        C594   1.408       .  A
C593        C598   1.412       .  A
C593        H600   1.083       .  S
C594        C595   1.415       .  A
C595        C596   1.409       .  A
C595        N602   1.438       .  S
C596        C597   1.407       .  A
C596        H601   1.083       .  S
C597        C598   1.414       .  A
C598        N599   1.437       .  S
N599        H603   1.045       .  S
N599        H604   1.046       .  S
N602        H605   1.046       .  S
N602        H606   1.046       .  S
C607        C608   1.405       .  A
C607        C612   1.407       .  A
C607        H614   1.084       .  S
C608        C609   1.412       .  A
C609        C610   1.409       .  A
C609        N616   1.437       .  S
C610        C611   1.407       .  A
C610        H615   1.083       .  S
C611        C612   1.415       .  A
C612        N613   1.438       .  S
N613        H617   1.046       .  S
N613        H618   1.046       .  S
N616        H619   1.045       .  S
N616        H620   1.046       .  S
C621        C622   1.404       .  A
C621        C626   1.405       .  A
C621        H628   1.084       .  S
C622        C623   1.414       .  A
C623        C624   1.410       .  A
C623        N630   1.437       .  S
C624        C625   1.404       .  A
C624        H629   1.084       .  S
C625        C626   1.412       .  A
C626        N627   1.439       .  S
N627        H631   1.045       .  S
N627        H632   1.045       .  S
N630        H633   1.046       .  S
N630        H634   1.046       .  S
C635        C636   1.407       .  A
C635        C640   1.413       .  A
C635        H642   1.083       .  S
C636        C637   1.417       .  A
C637        C638   1.411       .  A
C637        N644   1.438       .  S
C638        C639   1.404       .  A
C638        H643   1.084       .  S
C639        C640   1.412       .  A
C640        N641   1.438       .  S
N641        H645   1.045       .  S
N641        H646   1.046       .  S
N644        H647   1.045       .  S
N644        H648   1.046       .  S
C649        C650   1.408       .  A
C649        C654   1.411       .  A
C649        H656   1.084       .  S
C650        C651   1.416       .  A
C651        C652   1.400       .  A
C651        N658   1.432       .  S
C652        C653   1.406       .  A
C652        H657   1.084       .  S
C653        C654   1.415       .  A
C654        N655   1.438       .  S
N655        H659   1.046       .  S
N655        H660   1.045       .  S
N658        H661   1.045       .  S
N658        H662   1.045       .  S
C663        C664   1.406       .  A
C663        C668   1.412       .  A
C663        H670   1.084       .  S
C664        C665   1.414       .  A
C665        C666   1.409       .  A
C665        N672   1.438       .  S
C666        C667   1.405       .  A
C666        H671   1.084       .  S
C667        C668   1.412       .  A
C668        N669   1.437       .  S
N669        H673   1.045       .  S
N669        H674   1.045       .  S
N672        H675   1.046       .  S
N672        H676   1.045       .  S
C677        C678   1.407       .  A
C677        C682   1.411       .  A
C677        H684   1.084       .  S
C678        C679   1.413       .  A
C679        C680   1.404       .  A
C679        N686   1.432       .  S
C680        C681   1.403       .  A
C680        H685   1.084       .  S
C681        C682   1.415       .  A
C682        N683   1.432       .  S
N683        H687   1.046       .  S
N683        H688   1.046       .  S
N686        H689   1.046       .  S
N686        H690   1.045       .  S
C691        C692   1.406       .  A
C691        C696   1.406       .  A
C691        H698   1.084       .  S
C692        C693   1.416       .  A
C693        C694   1.412       .  A
C693        N700   1.438       .  S
C694        C695   1.407       .  A
C694        H699   1.084       .  S
C695        C696   1.410       .  A
C696        N697   1.432       .  S
N697        H701   1.045       .  S
N697        H702   1.046       .  S
N700        H703   1.046       .  S
N700        H704   1.046       .  S
C705        C706   1.405       .  A
C705        C710   1.412       .  A
C705        H712   1.083       .  S
C706        C707   1.411       .  A
C707        C708   1.405       .  A
C707        N714   1.433       .  S
C708        C709   1.403       .  A
C708        H713   1.084       .  S
C709        C710   1.414       .  A
C710        N711   1.437       .  S
N711        H715   1.046       .  S
N711        H716   1.045       .  S
N714        H717   1.046       .  S
N714        H718   1.045       .  S
C719        C720   1.406       .  A
C719        C724   1.406       .  A
C719        H726   1.084       .  S
C720        C721   1.419       .  A
C721        C722   1.402       .  A
C721        N728   1.433       .  S
C722        C723   1.404       .  A
C722        H727   1.084       .  S
C723        C724   1.416       .  A
C724        N725   1.432       .  S
N725        H729   1.044       .  S
N725        H730   1.047       .  S
N728        H731   1.045       .  S
N728        H732   1.045       .  S
C733        C734   1.408       .  A
C733        C738   1.409       .  A
C733        H740   1.083       .  S
C734        C735   1.418       .  A
C735        C736   1.398       .  A
C735        N742   1.432       .  S
C736        C737   1.405       .  A
C736        H741   1.084       .  S
C737        C738   1.412       .  A
C738        N739   1.437       .  S
N739        H743   1.046       .  S
N739        H744   1.046       .  S
N742        H745   1.046       .  S
N742        H746   1.044       .  S
C747        C748   1.405       .  A
C747        C752   1.408       .  A
C747        H754   1.083       .  S
C748        C749   1.411       .  A
C749        C750   1.408       .  A
C749        N756   1.432       .  S
C750        C751   1.408       .  A
C750        H755   1.084       .  S
C751        C752   1.416       .  A
C752        N753   1.438       .  S
N753        H757   1.046       .  S
N753        H758   1.045       .  S
N756        H759   1.045       .  S
N756        H760   1.046       .  S
C761        C762   1.405       .  A
C761        C766   1.411       .  A
C761        H768   1.083       .  S
C762        C763   1.412       .  A
C763        C764   1.401       .  A
C763        N770   1.432       .  S
C764        C765   1.403       .  A
C764        H769   1.084       .  S
C765        C766   1.416       .  A
C766        N767   1.438       .  S
N767        H771   1.046       .  S
N767        H772   1.046       .  S
N770        H773   1.046       .  S
N770        H774   1.046       .  S
C775        C776   1.405       .  A
C775        C780   1.410       .  A
C775        H782   1.084       .  S
C776        C777   1.413       .  A
C777        C778   1.410       .  A
C777        N784   1.437       .  S
C778        C779   1.408       .  A
C778        H783   1.083       .  S
C779        C780   1.416       .  A
C780        N781   1.438       .  S
N781        H785   1.045       .  S
N781        H786   1.045       .  S
N784        H787   1.045       .  S
N784        H788   1.046       .  S
C789        C790   1.403       .  A
C789        C794   1.411       .  A
C789        H796   1.084       .  S
C790        C791   1.413       .  A
C791        C792   1.407       .  A
C791        N798   1.438       .  S
C792        C793   1.404       .  A
C792        H797   1.084       .  S
C793        C794   1.415       .  A
C794        N795   1.438       .  S
N795        H799   1.046       .  S
N795        H800   1.045       .  S
N798        H801   1.045       .  S
N798        H802   1.046       .  S
C803        C804   1.405       .  A
C803        C808   1.409       .  A
C803        H810   1.084       .  S
C804        C805   1.415       .  A
C805        C806   1.413       .  A
C805        N812   1.438       .  S
C806        C807   1.408       .  A
C806        H811   1.083       .  S
C807        C808   1.415       .  A
C808        N809   1.438       .  S
N809        H813   1.045       .  S
N809        H814   1.046       .  S
N812        H815   1.046       .  S
N812        H816   1.046       .  S
C817        C818   1.407       .  A
C817        C822   1.410       .  A
C817        H824   1.084       .  S
C818        C819   1.417       .  A
C819        C820   1.403       .  A
C819        N826   1.432       .  S
C820        C821   1.407       .  A
C820        H825   1.084       .  S
C821        C822   1.414       .  A
C822        N823   1.437       .  S
N823        H827   1.046       .  S
N823        H828   1.045       .  S
N826        H829   1.045       .  S
N826        H830   1.046       .  S
C831        C832   1.409       .  A
C831        C836   1.416       .  A
C831        H838   1.083       .  S
C832        C833   1.412       .  A
C833        C834   1.406       .  A
C833        N840   1.432       .  S
C834        C835   1.405       .  A
C834        H839   1.084       .  S
C835        C836   1.415       .  A
C836        N837   1.437       .  S
N837        H841   1.046       .  S
N837        H842   1.046       .  S
N840        H843   1.045       .  S
N840        H844   1.046       .  S
C845        C846   1.404       .  A
C845        C850   1.407       .  A
C845        H852   1.084       .  S
C846        C847   1.414       .  A
C847        C848   1.406       .  A
C847        N854   1.438       .  S
C848        C849   1.404       .  A
C848        H853   1.083       .  S
C849        C850   1.412       .  A
C850        N851   1.432       .  S
N851        H855   1.046       .  S
N851        H856   1.045       .  S
N854        H857   1.046       .  S
N854        H858   1.045       .  S
C859        C860   1.406       .  A
C859        C864   1.410       .  A
C859        H866   1.084       .  S
C860        C861   1.416       .  A
C861        C862   1.405       .  A
C861        N868   1.432       .  S
C862        C863   1.406       .  A
C862        H867   1.084       .  S
C863        C864   1.416       .  A
C864        N865   1.438       .  S
N865        H869   1.046       .  S
N865        H870   1.045       .  S
N868        H871   1.045   1_545  S
N868        H872   1.045       .  S
C873        C874   1.404       .  A
C873        C878   1.408       .  A
C873        H880   1.083       .  S
C874        C875   1.415       .  A
C875        C876   1.410       .  A
C875        N882   1.432       .  S
C876        C877   1.406       .  A
C876        H881   1.084       .  S
C877        C878   1.416       .  A
C878        N879   1.438       .  S
N879        H883   1.045       .  S
N879        H884   1.046       .  S
N882        H885   1.045       .  S
N882        H886   1.046       .  S
C887        C888   1.407       .  A
C887        C892   1.411       .  A
C887        H894   1.083       .  S
C888        C889   1.414       .  A
C889        C890   1.407       .  A
C889        N896   1.438       .  S
C890        C891   1.405       .  A
C890        H895   1.084       .  S
C891        C892   1.415       .  A
C892        N893   1.438       .  S
N893        H897   1.046       .  S
N893        H898   1.045       .  S
N896        H899   1.046       .  S
N896        H900   1.046       .  S
C901        C902   1.406       .  A
C901        C906   1.401       .  A
C901        H908   1.084       .  S
C902        C903   1.417       .  A
C903        C904   1.415       .  A
C903        N910   1.437       .  S
C904        C905   1.406       .  A
C904        H909   1.084       .  S
C905        C906   1.412       .  A
C906        N907   1.433       .  S
N907        H911   1.045       .  S
N907        H912   1.046       .  S
N910        H913   1.046       .  S
N910        H914   1.046       .  S
C915        C916   1.408       .  A
C915        C920   1.407       .  A
C915        H922   1.084       .  S
C916        C917   1.416       .  A
C917        C918   1.411       .  A
C917        N924   1.437       .  S
C918        C919   1.405       .  A
C918        H923   1.084       .  S
C919        C920   1.415       .  A
C920        N921   1.432       .  S
N921        H925   1.046       .  S
N921        H926   1.045       .  S
N924        H927   1.046       .  S
N924        H928   1.046       .  S
C929        C930   1.404       .  A
C929        C934   1.404       .  A
C929        H936   1.083       .  S
C930        C931   1.415       .  A
C931        C932   1.408       .  A
C931        N938   1.432       .  S
C932        C933   1.404       .  A
C932        H937   1.084       .  S
C933        C934   1.412       .  A
C934        N935   1.438       .  S
N935        H939   1.046       .  S
N935        H940   1.045       .  S
N938        H941   1.046       .  S
N938        H942   1.046       .  S
C943        C944   1.404       .  A
C943        C948   1.406       .  A
C943        H950   1.084       .  S
C944        C945   1.417       .  A
C945        C946   1.399       .  A
C945        N952   1.433       .  S
C946        C947   1.404       .  A
C946        H951   1.084       .  S
C947        C948   1.413       .  A
C948        N949   1.432       .  S
N949        H953   1.046       .  S
N949        H954   1.045       .  S
N952        H955   1.046       .  S
N952        H956   1.044       .  S
C957        C958   1.404       .  A
C957        C962   1.410       .  A
C957        H964   1.084       .  S
C958        C959   1.414       .  A
C959        C960   1.411       .  A
C959        N966   1.438       .  S
C960        C961   1.404       .  A
C960        H965   1.083       .  S
C961        C962   1.414       .  A
C962        N963   1.438       .  S
N963        H967   1.046       .  S
N963        H968   1.046       .  S
N966        H969   1.045       .  S
N966        H970   1.045       .  S
C971        C972   1.402       .  A
C971        C976   1.401       .  A
C971        H978   1.084       .  S
C972        C973   1.412       .  A
C973        C974   1.405       .  A
C973        N980   1.439       .  S
C974        C975   1.405       .  A
C974        H979   1.084       .  S
C975        C976   1.419       .  A
C976        N977   1.432       .  S
N977        H981   1.046       .  S
N977        H982   1.045       .  S
N980        H983   1.046       .  S
N980        H984   1.046       .  S
