geometry optimzed in LAMMPS
_audit_creation_date              2020-11-30 
_audit_creation_method            'lammps2cif' 
_symmetry_space_group_name_H-M    'P1' 
_symmetry_Int_Tables_number       1 
_symmetry_cell_setting            triclinic 
loop_ 
_symmetry_equiv_pos_as_xyz 
  x,y,z 
_cell_length_a                    28.54971863 
_cell_length_b                    28.817199159978305 
_cell_length_c                    91.48218744820153 
_cell_angle_alpha                 90.01950324089741 
_cell_angle_beta                  89.71274346660987 
_cell_angle_gamma                 90.72612178259558 
loop_ 
_atom_site_label 
_atom_site_type_symbol 
_atom_site_fract_x 
_atom_site_fract_y 
_atom_site_fract_z 
_atom_site_charge 
N1          N  0.49152809  0.03516653  0.11337845    -0.36900
N2          N  0.06387137  0.54172825  0.09252030    -0.57400
N3          N  0.99167508  0.54774303  0.07062814    -0.36900
N4          N  0.41797115  0.54172015  0.09189758    -0.57400
C5          C  0.03098857  0.04406074  0.12209651     0.26700
C6          C  0.45305165  0.04428142  0.12148643     0.26700
C7          C  0.03004260  0.56240499  0.06318946     0.26700
C8          C  0.45655325  0.55702627  0.06266751     0.26700
C9          C  0.09422514  0.03012352  0.10412740     0.35300
C10         C  0.09092013  0.53698600  0.08047032     0.35300
C11         C  0.39224242  0.03081631  0.10267154     0.35300
C12         C  0.39248126  0.53507660  0.07966769     0.35300
C13         C  0.01561525  0.05962317  0.13562025    -0.22100
C14         C  0.46626342  0.05891520  0.13533500    -0.22100
C15         C  0.01669419  0.58609341  0.05071462    -0.22100
C16         C  0.47258046  0.57911379  0.05011287    -0.22100
C17         C  0.13856275  0.01686066  0.09969769    -0.23200
C18         C  0.13501312  0.52193375  0.08439476    -0.23200
C19         C  0.34830109  0.01697915  0.09784289    -0.23200
C20         C  0.34758705  0.52017241  0.08332066    -0.23200
C21         C  0.07800746  0.03372348  0.11871793    -0.18600
C22         C  0.40652311  0.03404553  0.11736286    -0.18600
C23         C  0.40923843  0.54504052  0.06543515    -0.18500
C24         C  0.07629486  0.54898011  0.06622534    -0.18500
H25         H  0.03675284  0.06872876  0.14500835     0.14400
H26         H  0.44367321  0.06767477  0.14443577     0.14400
H27         H  0.03928271  0.60083855  0.04234082     0.14400
H28         H  0.45178120  0.59284993  0.04129095     0.14400
H29         H  0.16722172  0.00636431  0.10660023     0.12600
H30         H  0.16455426  0.51588224  0.07721396     0.12600
H31         H  0.31874376  0.00573497  0.10445922     0.12600
H32         H  0.31897980  0.51271415  0.07593124     0.12600
H33         H  0.49186743  0.01762291  0.10345160     0.25900
H34         H  0.99131702  0.52350010  0.07903634     0.25900
O35         O  0.28684910  0.50516854  0.97642888    -0.74700
O36         O  0.19257708  0.50673529  0.00633746    -0.74700
O37         O  0.19366170  0.50704215  0.97623453    -0.74800
O38         O  0.28591765  0.50479711  0.00652759    -0.74800
O39         O  0.29002611  0.07782770  0.00573036    -0.74700
O40         O  0.19773279  0.07423521  0.97554704    -0.74700
O41         O  0.19697209  0.07663570  0.00564178    -0.74700
O42         O  0.29077906  0.07583107  0.97571013    -0.74800
Ni43       Ni  0.23963409  0.50321284  0.99138240     1.25400
Ni44       Ni  0.24381857  0.07886288  0.99064151     1.25400
C45         C  0.30437563  0.03709202  0.97040976     0.87500
C46         C  0.18390087  0.03829142  0.01154884     0.87400
C47         C  0.18499441  0.03497194  0.97018249     0.87500
C48         C  0.30373032  0.03968550  0.01138405     0.87600
O49         O  0.19300550  0.47084407  0.17624261    -0.74700
O50         O  0.29076648  0.46216569  0.20506289    -0.74700
O51         O  0.19194633  0.45854836  0.20561382    -0.74800
O52         O  0.28595994  0.47420682  0.17565770    -0.74800
O53         O  0.28917397  0.05277799  0.17830911    -0.74700
O54         O  0.19682310  0.03787278  0.20875257    -0.74700
O55         O  0.29520160  0.04107028  0.20761194    -0.74700
O56         O  0.19621697  0.05008839  0.17926073    -0.74800
Ni57       Ni  0.24052667  0.46364570  0.19078893     1.25400
Ni58       Ni  0.24430654  0.04805873  0.19384487     1.25400
C59         C  0.18287700  0.01357819  0.17233857     0.87500
C60         C  0.31471978  0.00173117  0.20971314     0.87400
C61         C  0.17910523  0.99744910  0.21136127     0.87500
C62         C  0.30176959  0.01720155  0.17097971     0.87600
N63         N  0.99924245  0.03821792  0.91195030    -0.36900
N64         N  0.07047346  0.03066434  0.88960876    -0.57400
N65         N  0.99600100  0.02400267  0.86854913    -0.36900
N66         N  0.42260852  0.03606090  0.89046458    -0.57400
C67         C  0.03818956  0.05026932  0.91944438     0.26700
C68         C  0.45861076  0.05734471  0.91967213     0.26700
C69         C  0.03332996  0.03285255  0.85981286     0.26700
C70         C  0.45734038  0.03237839  0.86034028     0.26700
C71         C  0.09787320  0.02497997  0.90142138     0.35300
C72         C  0.09615693  0.01882378  0.87780023     0.35300
C73         C  0.39655267  0.03072495  0.90271125     0.35300
C74         C  0.39587355  0.02140921  0.87920187     0.35300
C75         C  0.02565174  0.07199620  0.93240432    -0.22100
C76         C  0.47286411  0.08057322  0.93219769    -0.22100
C77         C  0.01818417  0.04699804  0.84614367    -0.22100
C78         C  0.47117813  0.04518523  0.84635500    -0.22100
C79         C  0.14185064  0.01016710  0.89711175    -0.23200
C80         C  0.14079322  0.00636975  0.88205591    -0.23200
C81         C  0.35245444  0.01354020  0.89921669    -0.23200
C82         C  0.35198332  0.00772984  0.88423154    -0.23200
C83         C  0.08424063  0.03702454  0.91578070    -0.18600
C84         C  0.41208256  0.04330247  0.91681056    -0.18600
C85         C  0.41072848  0.02221296  0.86446641    -0.18500
C86         C  0.08030014  0.02324371  0.86327941    -0.18500
H87         H  0.04862064  0.08449529  0.94095691     0.14400
H88         H  0.45087698  0.09431596  0.94080301     0.14400
H89         H  0.03938629  0.05542585  0.83664960     0.14400
H90         H  0.44905119  0.05195934  0.83704276     0.14400
H91         H  0.17177226  0.00403054  0.90403489     0.12600
H92         H  0.16968700  0.99662457  0.87504187     0.12600
H93         H  0.32371409  0.00621863  0.90665844     0.12600
H94         H  0.32288416  0.99486797  0.87779368     0.12600
H95         H  0.99798808  0.01565229  0.90309418     0.25900
H96         H  0.99662628  0.00667979  0.87851328     0.25900
O97         O  0.29890195  0.02652229  0.77480270    -0.74700
O98         O  0.19851850  0.03810459  0.80271918    -0.74700
O99         O  0.29189836  0.03801828  0.80407009    -0.74800
O100        O  0.20038031  0.02674650  0.77350277    -0.74800
O101        O  0.19561158  0.45557587  0.77794408    -0.74700
O102        O  0.28729672  0.46773355  0.80844863    -0.74700
O103        O  0.19409412  0.46910655  0.80715181    -0.74700
O104        O  0.29468713  0.45422735  0.77921816    -0.74800
Ni105      Ni  0.24758422  0.03488948  0.78841359     1.25400
Ni106      Ni  0.24290601  0.45882636  0.79304035     1.25400
C107        C  0.31830580  0.98698539  0.77289691     0.87500
C108        C  0.18347375  0.00188963  0.80947821     0.87400
C109        C  0.30322211  0.00207478  0.81141344     0.87500
C110        C  0.18017277  0.98732260  0.77118572     0.87600
O111        O  0.02566282  0.28533936  0.70318882    -0.74700
O112        O  0.01769064  0.19067931  0.67341052    -0.74700
O113        O  0.01754750  0.28281077  0.67372811    -0.74800
O114        O  0.02607609  0.18696175  0.70285427    -0.74800
O115        O  0.44619607  0.18159713  0.70477275    -0.74700
O116        O  0.43621832  0.27837418  0.67596774    -0.74700
O117        O  0.43711013  0.18607123  0.67547201    -0.74700
O118        O  0.44478947  0.27979906  0.70535812    -0.74800
Ni119      Ni  0.02458384  0.23649741  0.68850361     1.25400
Ni120      Ni  0.43840791  0.23137098  0.69075420     1.25400
C121        C  0.98780111  0.30372476  0.70808018     0.87500
C122        C  0.97718800  0.17773186  0.66884784     0.87400
C123        C  0.97718337  0.29587128  0.66944270     0.87500
C124        C  0.98843563  0.16643208  0.70733567     0.87600
N125        N  0.46482936  0.98132030  0.56790085    -0.36900
N126        N  0.46147454  0.05424999  0.58946773    -0.57400
N127        N  0.46308660  0.98167424  0.61147152    -0.36900
N128        N  0.45856718  0.41052908  0.58998919    -0.57400
C129        C  0.45630825  0.01862825  0.55943169     0.26700
C130        C  0.45585520  0.44642484  0.56001879     0.26700
C131        C  0.45192974  0.01929066  0.61949994     0.26700
C132        C  0.44607712  0.44513852  0.61971675     0.26700
C133        C  0.47218438  0.08043749  0.57765592     0.35300
C134        C  0.47051100  0.08065247  0.60132773     0.35300
C135        C  0.46965168  0.38456719  0.57824275     0.35300
C136        C  0.46573764  0.38395526  0.60188353     0.35300
C137        C  0.44163530  0.00415396  0.54572035    -0.22100
C138        C  0.44156313  0.46115790  0.54633640    -0.22100
C139        C  0.92938313  0.01237235  0.63265827    -0.22100
C140        C  0.92507833  0.45516283  0.63251455    -0.22100
C141        C  0.48681982  0.12433959  0.58199028    -0.23200
C142        C  0.48572335  0.12448773  0.59706899    -0.23200
C143        C  0.48270650  0.34056104  0.58263528    -0.23200
C144        C  0.48020849  0.34017990  0.59771192    -0.23200
C145        C  0.46743864  0.06502496  0.56308610    -0.22600
C146        C  0.46520657  0.39991274  0.56367803    -0.18600
C147        C  0.45681389  0.39879688  0.61630311    -0.18500
C148        C  0.46381174  0.06548882  0.61586063    -0.18500
H149        H  0.43352042  0.02568060  0.53639684     0.14400
H150        H  0.43201497  0.43979901  0.53705979     0.14400
H151        H  0.91855270  0.03530030  0.64138293     0.14400
H152        H  0.91427795  0.43265021  0.64140853     0.14400
H153        H  0.49724342  0.15307307  0.57503330     0.12600
H154        H  0.49518811  0.15334711  0.60407761     0.12600
H155        H  0.49245783  0.31176141  0.57571000     0.12600
H156        H  0.48770213  0.31108029  0.60476394     0.12600
H157        H  0.48286713  0.98188615  0.57773291     0.25900
H158        H  0.48360571  0.98199560  0.60205008     0.25900
O159        O  0.46614582  0.28213199  0.50330814    -0.74700
O160        O  0.48387624  0.18825998  0.47442487    -0.74700
O161        O  0.46558179  0.18947355  0.50387776    -0.74800
O162        O  0.48488519  0.28066857  0.47379126    -0.74800
O163        O  0.06609323  0.28252588  0.47839148    -0.74700
O164        O  0.04925206  0.18947394  0.50773952    -0.74700
O165        O  0.06798951  0.19000003  0.47826947    -0.74700
O166        O  0.04707713  0.28182323  0.50779382    -0.74800
Ni167      Ni  0.47237801  0.23515065  0.48869660     1.25400
Ni168      Ni  0.06031780  0.23607097  0.49320836     1.25400
C169        C  0.50102261  0.29555166  0.51105347     0.87500
C170        C  0.52520058  0.17447973  0.47134915     0.87400
C171        C  0.50070963  0.17556934  0.51130835     0.87500
C172        C  0.52682954  0.29379277  0.47063832     0.87600
C173        C  0.99664382  0.98469111  0.73932436    -0.02700
N174        N  0.55333171  0.98632817  0.37027648    -0.36900
N175        N  0.56105121  0.41302740  0.39159558    -0.57400
N176        N  0.56006935  0.98447022  0.41388100    -0.36900
N177        N  0.55366309  0.05776370  0.39233500    -0.57400
C178        C  0.56566343  0.44915226  0.36151351     0.26700
C179        C  0.55877006  0.02498053  0.36205621     0.26700
C180        C  0.57206199  0.44734994  0.42156348     0.26700
C181        C  0.56804266  0.02215123  0.42233551     0.26700
C182        C  0.55035914  0.38706568  0.37975970     0.35300
C183        C  0.55137747  0.38666948  0.40345940     0.35300
C184        C  0.54043967  0.08385667  0.38085528     0.35300
C185        C  0.54543433  0.08300883  0.40447851     0.35300
C186        C  0.58023863  0.46430871  0.34779714    -0.22100
C187        C  0.57544865  0.01327890  0.34830282    -0.22100
C188        C  0.59052237  0.46075786  0.43492010    -0.22100
C189        C  0.58375613  0.00816377  0.43596720    -0.22100
C190        C  0.53531918  0.34323064  0.38407416    -0.23200
C191        C  0.53573954  0.34305728  0.39916468    -0.23200
C192        C  0.52483164  0.12657008  0.38565754    -0.23200
C193        C  0.52807158  0.12606906  0.40069363    -0.23200
C194        C  0.55607601  0.40243347  0.36519103    -0.18600
C195        C  0.54459638  0.06984837  0.36613214    -0.18600
C196        C  0.55521632  0.06799635  0.41883094    -0.18500
C197        C  0.55782469  0.40169511  0.41802511    -0.18500
H198        H  0.58962068  0.44344452  0.33842750     0.14400
H199        H  0.58231194  0.03623993  0.33915942     0.14400
H200        H  0.59980296  0.43858096  0.44397345     0.14400
H201        H  0.59154920  0.02972139  0.44535004     0.14400
H202        H  0.52499582  0.31457889  0.37709648     0.12600
H203        H  0.52581609  0.31424313  0.40615618     0.12600
H204        H  0.51261024  0.15502528  0.37903018     0.12600
H205        H  0.51881277  0.15410988  0.40798852     0.12600
H206        H  0.53488946  0.98410271  0.38007952     0.25900
H207        H  0.54144345  0.98402904  0.40417354     0.25900
O208        O  0.06379418  0.28302464  0.30564684    -0.74700
O209        O  0.04782538  0.18550182  0.27707451    -0.74700
O210        O  0.05006759  0.28336083  0.27646314    -0.74800
O211        O  0.06223070  0.19026798  0.30637339    -0.74800
O212        O  0.48351454  0.19109549  0.30957798    -0.74700
O213        O  0.47218027  0.28376919  0.27949609    -0.74700
O214        O  0.47006361  0.18638951  0.28025732    -0.74700
O215        O  0.48502884  0.28328210  0.30873988    -0.74800
Ni216      Ni  0.05861500  0.23540351  0.29102176     1.25400
Ni217      Ni  0.47488826  0.23607459  0.29439050     1.25400
C218        C  0.52613637  0.29724484  0.31228304     0.87500
C219        C  0.00691992  0.16727414  0.27523739     0.87400
C220        C  0.01001611  0.30198952  0.27436431     0.87500
C221        C  0.52448024  0.17853199  0.31352329     0.87600
C222        C  0.99345754  0.98645053  0.24308198    -0.02700
C223        C  0.99102757  0.43568571  0.25144267    -0.06400
C224        C  0.03258207  0.42562084  0.25925716    -0.17500
C225        C  0.03999521  0.38324682  0.26658349     0.10800
C226        C  0.00615662  0.34697183  0.26598311    -0.06300
C227        C  0.46592987  0.35609051  0.25748606    -0.17500
C228        C  0.45862635  0.39826155  0.24998948     0.10900
S229        S  0.09208282  0.37944541  0.27749079    -0.32500
S230        S  0.41108469  0.39407227  0.23700861    -0.32500
H231        H  0.38145505  0.36577165  0.24564811     0.28900
H232        H  0.06777750  0.36328025  0.28992498     0.28900
H233        H  0.05949206  0.45223609  0.26020658     0.19400
H234        H  0.44087307  0.32781900  0.25626602     0.19500
C235        C  0.99283047  0.03163754  0.25332066    -0.06400
C236        C  0.49036068  0.07437078  0.24520344    -0.17500
C237        C  0.49356834  0.11847308  0.25171277     0.10800
C238        C  0.00142532  0.12191497  0.26734030    -0.06300
C239        C  0.00212915  0.08054895  0.27544862    -0.17500
C240        C  0.99745269  0.03601352  0.26897905     0.10900
S241        S  0.48883490  0.16831894  0.23987200    -0.32500
S242        S  0.99866276  0.98963721  0.28226049    -0.32500
H243        H  0.96457020  0.96061100  0.27613464     0.28900
H244        H  0.47839965  0.20152986  0.25058991     0.28900
H245        H  0.48677076  0.07355054  0.23343032     0.19400
H246        H  0.00636099  0.08308788  0.28719936     0.19500
C247        C  0.54840242  0.37001450  0.35283542    -0.06400
C248        C  0.50332436  0.36754602  0.34688412    -0.17500
C249        C  0.49520553  0.34701870  0.33325768     0.10800
C250        C  0.53289458  0.32673356  0.32547804    -0.06300
C251        C  0.57815806  0.32991419  0.33148712    -0.17500
C252        C  0.58618687  0.35085323  0.34503629     0.10900
S253        S  0.43662840  0.35106248  0.32614822    -0.32500
S254        S  0.64584769  0.35472059  0.35135358    -0.32500
H255        H  0.12647081  0.34799560  0.36903221     0.28900
H256        H  0.45163445  0.36353645  0.31198269     0.28900
H257        H  0.47464515  0.38424285  0.35254446     0.19400
H258        H  0.10737694  0.31023497  0.32791395     0.19500
C259        C  0.53565783  0.10310174  0.35411613    -0.06400
C260        C  0.07661034  0.12950951  0.34940447    -0.17500
C261        C  0.07336700  0.15503864  0.33646576     0.10800
C262        C  0.52981400  0.15225803  0.32740725    -0.06300
C263        C  0.49232845  0.12416735  0.33232844    -0.17500
C264        C  0.49482381  0.09967734  0.34551744     0.10900
S265        S  0.12271865  0.19190870  0.33200314    -0.32500
S266        S  0.44568236  0.06291065  0.35048292    -0.32500
H267        H  0.45287698  0.06493455  0.36565879     0.28900
H268        H  0.09442894  0.23007903  0.32898313     0.28900
H269        H  0.10877883  0.13092743  0.35564477     0.19400
H270        H  0.46099115  0.12071293  0.32576230     0.19500
C271        C  0.53569691  0.32127100  0.45712256    -0.06400
C272        C  0.50023867  0.35012395  0.45186815    -0.17500
C273        C  0.50557644  0.37448370  0.43870908     0.10800
C274        C  0.54719600  0.36998732  0.43043382    -0.06300
C275        C  0.08313463  0.34308892  0.43520904    -0.17500
C276        C  0.07988363  0.31898379  0.44843960     0.10900
S277        S  0.45867164  0.41206843  0.43328466    -0.32500
S278        S  0.12839475  0.28264941  0.45307488    -0.32500
H279        H  0.14018358  0.30942197  0.46542120     0.28900
H280        H  0.46660650  0.40877738  0.41815122     0.28900
H281        H  0.46812838  0.35396970  0.45809357     0.19400
H282        H  0.11481652  0.34081588  0.42868230     0.19500
C283        C  0.53276442  0.14480933  0.45831571    -0.06400
C284        C  0.08116686  0.15353836  0.44920181    -0.17500
C285        C  0.08868247  0.12941119  0.43610499     0.10800
C286        C  0.54762484  0.09986172  0.43128240    -0.06300
C287        C  0.50348265  0.09851871  0.43800677    -0.17500
C288        C  0.49589242  0.11959050  0.45154089     0.10900
S289        S  0.14129904  0.14295950  0.42586395    -0.32500
S290        S  0.43943666  0.10972569  0.45996576    -0.32500
H291        H  0.45779326  0.10297821  0.47405183     0.28900
H292        H  0.14547825  0.10013351  0.41868270     0.28900
H293        H  0.10639744  0.17986009  0.45247942     0.19400
H294        H  0.47538474  0.07844412  0.43304684     0.19500
C295        C  0.47472005  0.36801668  0.55135486    -0.06400
C296        C  0.01996433  0.37571728  0.54310949    -0.17500
C297        C  0.02905269  0.35416018  0.52973515     0.10800
C298        C  0.49237829  0.32406056  0.52428721    -0.06300
C299        C  0.44800981  0.32068071  0.53105755    -0.17500
C300        C  0.43878312  0.34242096  0.54442493     0.10900
S301        S  0.08227524  0.37077327  0.52032328    -0.32500
S302        S  0.37985108  0.33848025  0.55157800    -0.32500
H303        H  0.39126715  0.34495048  0.56634399     0.28900
H304        H  0.06195546  0.37056972  0.50633608     0.28900
H305        H  0.04513204  0.40070154  0.54736337     0.19400
H306        H  0.42025650  0.30039189  0.52601622     0.19500
C307        C  0.47684963  0.09713897  0.55071424    -0.06400
C308        C  0.02469558  0.09049909  0.54236479    -0.17500
C309        C  0.03314197  0.11424752  0.52921552     0.10800
C310        C  0.49273418  0.14628382  0.52441517    -0.06300
C311        C  0.45189423  0.15339924  0.53275454    -0.17500
C312        C  0.44338803  0.12888734  0.54572086     0.10900
S313        S  0.08459803  0.10057723  0.51853526    -0.32500
S314        S  0.38907483  0.13920054  0.55525853    -0.32500
H315        H  0.38253153  0.09374057  0.56049862     0.28900
H316        H  0.10598757  0.07215060  0.52899571     0.28900
H317        H  0.04899540  0.06439945  0.54599379     0.19400
H318        H  0.42633874  0.17839223  0.52916756     0.19500
C319        C  0.96488918  0.36446540  0.62789988    -0.06400
C320        C  0.00642500  0.36905401  0.63589344    -0.17500
C321        C  0.01067378  0.34951233  0.64979642     0.10800
C322        C  0.97303194  0.32314490  0.65576711    -0.06300
C323        C  0.42998353  0.31442726  0.64711688    -0.17500
C324        C  0.42584092  0.33664247  0.63359167     0.10900
S325        S  0.06350865  0.36293404  0.65971490    -0.32500
S326        S  0.37311162  0.32513446  0.62328048    -0.32500
H327        H  0.37756951  0.36035676  0.61278895     0.28900
H328        H  0.04044493  0.36921832  0.67319646     0.28900
H329        H  0.03465386  0.39076721  0.63165506     0.19400
H330        H  0.40212300  0.29111372  0.65062494     0.19500
C331        C  0.97358546  0.15056666  0.65510885    -0.06400
C332        C  0.01081686  0.12167993  0.65115150    -0.17500
C333        C  0.01072418  0.09753278  0.63788564     0.10800
C334        C  0.97282415  0.10252370  0.62817020    -0.06300
C335        C  0.43378696  0.12814616  0.63168750    -0.17500
C336        C  0.43342925  0.15263387  0.64493802     0.10900
S337        S  0.05896507  0.05925173  0.63425593    -0.32500
S338        S  0.38502795  0.19079865  0.64868678    -0.32500
H339        H  0.36076160  0.18370345  0.63551528     0.28900
H340        H  0.05577238  0.06031187  0.61893712     0.28900
H341        H  0.04007021  0.11745893  0.65851649     0.19400
H342        H  0.40463229  0.13076748  0.62422086     0.19500
C343        C  0.98991981  0.35040496  0.71588877    -0.06400
C344        C  0.03294505  0.36696651  0.72126749    -0.17500
C345        C  0.03876899  0.41151087  0.72760330     0.10800
C346        C  0.99862668  0.44080719  0.73015188    -0.06300
C347        C  0.45610426  0.42350858  0.72212870    -0.17500
C348        C  0.44990405  0.37911565  0.71576329     0.10900
S349        S  0.10017841  0.42662138  0.72988561    -0.32500
S350        S  0.39355687  0.36673674  0.70786303    -0.32500
H351        H  0.38396840  0.33033693  0.71773422     0.28900
H352        H  0.09796052  0.47461435  0.72993471     0.28900
H353        H  0.06345919  0.34529941  0.72000708     0.19400
H354        H  0.42634559  0.44611845  0.72227280     0.19500
C355        C  0.99009724  0.11875135  0.71447361    -0.06400
C356        C  0.44853283  0.09685383  0.72098172    -0.17500
C357        C  0.44755678  0.05198772  0.72725917     0.10800
C358        C  0.98954087  0.02837858  0.72871521    -0.06300
C359        C  0.02724693  0.04388353  0.71977559    -0.17500
C360        C  0.02803642  0.08767826  0.71277795     0.10900
S361        S  0.38973330  0.02664091  0.72978295    -0.32500
S362        S  0.07807192  0.10040746  0.70134715    -0.32500
H363        H  0.05064595  0.11324947  0.68929858     0.28900
H364        H  0.36660151  0.06849840  0.73269515     0.28900
H365        H  0.41637729  0.11627053  0.72050855     0.19400
H366        H  0.05756916  0.02269593  0.71855122     0.19500
C367        C  0.36632100  0.98419355  0.76580501    -0.06400
C368        C  0.37796399  0.44390132  0.76095245    -0.17500
C369        C  0.42239429  0.43851557  0.75414677     0.10800
C370        C  0.45539825  0.97802399  0.75071477    -0.06300
C371        C  0.44266469  0.01787788  0.75878183    -0.17500
C372        C  0.39940473  0.02141985  0.76615213     0.10900
S373        S  0.44328747  0.37973688  0.75245370    -0.32500
S374        S  0.38957124  0.07449222  0.77602882    -0.32500
H375        H  0.37386443  0.05154164  0.78874300     0.28900
H376        H  0.39928214  0.35729269  0.75306281     0.28900
H377        H  0.35510619  0.41395514  0.76229557     0.19400
H378        H  0.46524113  0.04814643  0.75854591     0.19500
C379        C  0.04190202  0.98994107  0.74936485    -0.06400
C380        C  0.05484946  0.45318236  0.75869237    -0.17500
C381        C  0.09966221  0.45116973  0.76511422     0.10800
C382        C  0.13316209  0.98594191  0.76334082    -0.06300
C383        C  0.11625329  0.02720211  0.75714465    -0.17500
C384        C  0.07066625  0.03073501  0.75119786     0.10900
S385        S  0.11456614  0.39696485  0.77354602    -0.32500
S386        S  0.04808639  0.08889331  0.74927985    -0.32500
H387        H  0.08780528  0.11387452  0.75402745     0.28900
H388        H  0.15369824  0.39063442  0.76437031     0.28900
H389        H  0.03337673  0.42212741  0.75893955     0.19400
H390        H  0.13814764  0.05804014  0.75769174     0.19500
C391        C  0.32901461  0.00736252  0.82545719    -0.06400
C392        C  0.35463853  0.47692092  0.83111595    -0.17500
C393        C  0.37864366  0.47925494  0.84439128     0.10800
C394        C  0.37705193  0.01328160  0.85245019    -0.06300
C395        C  0.35023569  0.05032790  0.84753898    -0.17500
C396        C  0.32616790  0.04789803  0.83427941     0.10900
S397        S  0.41391278  0.43039530  0.84945608    -0.32500
S398        S  0.29208310  0.09775586  0.82958035    -0.32500
H399        H  0.25260738  0.07062953  0.82619112     0.28900
H400        H  0.40962951  0.43693221  0.86463596     0.28900
H401        H  0.35787379  0.44604149  0.82444167     0.19400
H402        H  0.34941146  0.08211233  0.85387380     0.19500
C403        C  0.11259272  0.01677595  0.85073143    -0.06400
C404        C  0.10557003  0.48855916  0.84448428    -0.17500
C405        C  0.12514006  0.48117250  0.83061798     0.10800
C406        C  0.15364837  0.00734278  0.82269274    -0.06300
C407        C  0.15586576  0.04980205  0.83027730    -0.17500
C408        C  0.13613290  0.05481476  0.84419010     0.10900
S409        S  0.11260932  0.42623571  0.82195957    -0.32500
S410        S  0.13926423  0.11162969  0.85246381    -0.32500
H411        H  0.13453707  0.09723994  0.86703988     0.28900
H412        H  0.10709133  0.44530574  0.80791182     0.28900
H413        H  0.08471139  0.46113655  0.84950302     0.19400
H414        H  0.17350867  0.07951778  0.82542996     0.19500
C415        C  0.36031080  0.99953438  0.21780012    -0.06400
C416        C  0.35995415  0.99909363  0.23302501    -0.17500
C417        C  0.40162425  0.99569403  0.24120450     0.10800
C418        C  0.44665657  0.99181965  0.23405582    -0.06300
C419        C  0.44086319  0.49591899  0.21940200    -0.17500
C420        C  0.39865008  0.49649165  0.21137217     0.10900
S421        S  0.39459608  0.99246283  0.26078841    -0.32500
S422        S  0.40321630  0.49630024  0.19175374    -0.32500
H423        H  0.36884604  0.46148982  0.18991762     0.28900
H424        H  0.34801585  0.00758017  0.26164901     0.28900
H425        H  0.32636073  0.00014520  0.23854990     0.19400
H426        H  0.47329534  0.49763529  0.21331674     0.19500
C427        C  0.04177908  0.98944722  0.23385111    -0.06400
C428        C  0.07868689  0.02044549  0.23836617    -0.17500
C429        C  0.12328977  0.02251893  0.23180205     0.10800
C430        C  0.13441341  0.99277999  0.22015164    -0.06300
C431        C  0.09386470  0.45767180  0.21600682    -0.17500
C432        C  0.04901555  0.45535474  0.22284358     0.10900
S433        S  0.16559400  0.06242130  0.23956291    -0.32500
S434        S  0.01019802  0.40866590  0.21733059    -0.32500
H435        H  0.03407076  0.39616193  0.20446280     0.28900
H436        H  0.20427424  0.03332044  0.23747087     0.28900
H437        H  0.07498946  0.04256270  0.24778730     0.19400
H438        H  0.10196973  0.43383890  0.20723438     0.19500
C439        C  0.33245878  0.03736658  0.95673331    -0.06400
C440        C  0.32440953  0.07303625  0.94655955    -0.17500
C441        C  0.34817701  0.07492912  0.93316737     0.10800
C442        C  0.38017542  0.03983922  0.92961293    -0.06300
C443        C  0.37975698  0.50594979  0.93911903    -0.17500
C444        C  0.35674724  0.50451278  0.95271047     0.10900
S445        S  0.33668377  0.12332182  0.92126089    -0.32500
S446        S  0.36349495  0.45393643  0.96417838    -0.32500
H447        H  0.39203559  0.42848733  0.95459252     0.28900
H448        H  0.38184399  0.12695553  0.91516922     0.28900
H449        H  0.29933660  0.09987049  0.94905462     0.19400
H450        H  0.40093383  0.47698964  0.93566074     0.19500
C451        C  0.11768882  0.03386496  0.92807701    -0.06400
C452        C  0.09937371  0.51258343  0.93967469    -0.17500
C453        C  0.12098082  0.51209368  0.95340746     0.10800
C454        C  0.15925721  0.03383709  0.95609426    -0.06300
C455        C  0.16478281  0.07203896  0.94660762    -0.17500
C456        C  0.14438279  0.07253844  0.93274556     0.10900
S457        S  0.10247337  0.46936624  0.96677486    -0.32500
S458        S  0.15081233  0.12500503  0.92210984    -0.32500
H459        H  0.14140523  0.10552216  0.90837582     0.28900
H460        H  0.06409733  0.45140308  0.95891216     0.28900
H461        H  0.07259795  0.48688879  0.93715268     0.19400
H462        H  0.18535793  0.10199797  0.94997693     0.19500
C463        C  0.32800040  0.02272602  0.15702937    -0.06400
C464        C  0.35094282  0.48366944  0.15255968    -0.17500
C465        C  0.37375156  0.48522016  0.13901891     0.10800
C466        C  0.37254056  0.02626985  0.12939827    -0.06300
C467        C  0.34718026  0.06423473  0.13450350    -0.17500
C468        C  0.32530357  0.06317564  0.14821401     0.10900
S469        S  0.40869434  0.43603135  0.13390421    -0.32500
S470        S  0.29458699  0.11461850  0.15361629    -0.32500
H471        H  0.32455587  0.12310309  0.16552164     0.28900
H472        H  0.40471584  0.44235099  0.11872597     0.28900
H473        H  0.35443532  0.45292611  0.15926599     0.19400
H474        H  0.34679893  0.09591488  0.12812135     0.19500
C475        C  0.15453568  0.01841287  0.15886386    -0.06400
C476        C  0.16362938  0.05681558  0.14971706    -0.17500
C477        C  0.14118809  0.06177166  0.13621731     0.10800
C478        C  0.10985314  0.02679938  0.13137477    -0.06300
C479        C  0.10086023  0.48363824  0.13959493    -0.17500
C480        C  0.12130225  0.47931731  0.15341344     0.10900
S481        S  0.15326405  0.11401916  0.12593105    -0.32500
S482        S  0.10635014  0.42818457  0.16387633    -0.32500
H483        H  0.10411613  0.45152119  0.17737972     0.28900
H484        H  0.10888523  0.11785534  0.11951867     0.28900
H485        H  0.18847858  0.08337205  0.15311071     0.19400
H486        H  0.07780058  0.45619256  0.13569309     0.19500
C487        C  0.33193777  0.04107168  0.02487824    -0.06400
C488        C  0.32146230  0.07510163  0.03539489    -0.17500
C489        C  0.34464514  0.07682454  0.04883245     0.10800
C490        C  0.37745733  0.54278284  0.05257924    -0.06300
C491        C  0.38559141  0.50825595  0.04204163    -0.17500
C492        C  0.36225016  0.50806566  0.02860785     0.10900
S493        S  0.33017433  0.12340434  0.06116740    -0.32500
S494        S  0.37832447  0.46414421  0.01553758    -0.32500
H495        H  0.37547803  0.49340179  0.00326915     0.28900
H496        H  0.37487155  0.12855431  0.06735409     0.28900
H497        H  0.29491839  0.10065785  0.03313793     0.19400
H498        H  0.41186697  0.48225091  0.04409245     0.19500
C499        C  0.10836066  0.54585449  0.05341578    -0.06400
C500        C  0.09908478  0.51042188  0.04323070    -0.17500
C501        C  0.11988918  0.51051935  0.02934683     0.10800
C502        C  0.15705831  0.03960182  0.02545449    -0.06300
C503        C  0.16706342  0.07584943  0.03532880    -0.17500
C504        C  0.14590132  0.07787158  0.04915622     0.10900
S505        S  0.10156569  0.46570713  0.01677556    -0.32500
S506        S  0.15864311  0.12863732  0.06011784    -0.32500
H507        H  0.13648793  0.11516426  0.07314280     0.28900
H508        H  0.10260994  0.49456255  0.00436612     0.28900
H509        H  0.07327998  0.48374768  0.04586416     0.19400
H510        H  0.19175205  0.10306231  0.03225712     0.19500
N511        N  0.48891404  0.53412508  0.11419589    -0.36900
N512        N  0.06860722  0.04215019  0.09237664    -0.57400
N513        N  0.99695436  0.04657068  0.07006153    -0.36900
N514        N  0.41958686  0.04316038  0.09122985    -0.57400
C515        C  0.02679420  0.53966015  0.12243925     0.26700
C516        C  0.45043502  0.54414051  0.12217287     0.26700
C517        C  0.03571355  0.05990249  0.06257805     0.26700
C518        C  0.45700463  0.05953448  0.06188493     0.26700
C519        C  0.08991473  0.52900513  0.10409552     0.35300
C520        C  0.09571371  0.03562953  0.08043927     0.35300
C521        C  0.39005879  0.53023916  0.10331819     0.35300
C522        C  0.39383952  0.03632835  0.07907598     0.35300
C523        C  0.01168683  0.55310874  0.13622289    -0.22100
C524        C  0.46351436  0.55987581  0.13591065    -0.22100
C525        C  0.02289664  0.08115265  0.04960580    -0.22100
C526        C  0.47221763  0.08058343  0.04905524    -0.22100
C527        C  0.13443238  0.51703435  0.09944599    -0.23200
C528        C  0.13947564  0.02024153  0.08461271    -0.23200
C529        C  0.34603011  0.51714908  0.09838822    -0.23200
C530        C  0.34935743  0.02037372  0.08279294    -0.23200
C531        C  0.07396249  0.53090749  0.11875164    -0.18600
C532        C  0.40402419  0.53353676  0.11806463    -0.18600
C533        C  0.41003129  0.04675624  0.06484605    -0.18500
C534        C  0.08186498  0.04694743  0.06605323    -0.18500
H535        H  0.03299312  0.56138109  0.14564595     0.14400
H536        H  0.44079116  0.56941492  0.14489972     0.14400
H537        H  0.04584497  0.09427340  0.04106393     0.14400
H538        H  0.45090763  0.09304847  0.04016070     0.14400
H539        H  0.16338834  0.50628614  0.10618618     0.12600
H540        H  0.16909164  0.01313532  0.07756526     0.12600
H541        H  0.31603690  0.50677230  0.10494880     0.12600
H542        H  0.32072355  0.01242315  0.07546030     0.12600
H543        H  0.48922130  0.51558379  0.10444274     0.25900
H544        H  0.99621527  0.02400500  0.07892364     0.25900
O545        O  0.29092603  0.99854488  0.97612198    -0.74700
O546        O  0.19722586  0.99933714  0.00630198    -0.74700
O547        O  0.19784450  0.99704051  0.97613524    -0.74800
O548        O  0.29047177  0.00048072  0.00615694    -0.74800
O549        O  0.28805548  0.58211714  0.00670374    -0.74700
O550        O  0.19665386  0.58432063  0.97613032    -0.74700
O551        O  0.19480158  0.58404241  0.00631734    -0.74700
O552        O  0.28984775  0.58235450  0.97660344    -0.74800
Ni553      Ni  0.24405007  0.99608872  0.99120663     1.25400
Ni554      Ni  0.24239393  0.58596078  0.99144564     1.25400
C555        C  0.30209643  0.54350064  0.97102469     0.87500
C556        C  0.18008967  0.54559642  0.01182299     0.87400
C557        C  0.18205678  0.54591812  0.97060463     0.87500
C558        C  0.30046235  0.54312659  0.01209920     0.87600
O559        O  0.19700764  0.97339655  0.17620149    -0.74700
O560        O  0.29619989  0.96445358  0.20446056    -0.74700
O561        O  0.19757034  0.96133420  0.20558570    -0.74800
O562        O  0.28986465  0.97627073  0.17516147    -0.74800
O563        O  0.28423010  0.55073957  0.17871786    -0.74700
O564        O  0.19118459  0.53502763  0.20889996    -0.74700
O565        O  0.28955049  0.53879258  0.20810948    -0.74700
O566        O  0.19114604  0.54739379  0.17945913    -0.74800
Ni567      Ni  0.24524260  0.96607018  0.19050059     1.25400
Ni568      Ni  0.23897917  0.54557906  0.19415460     1.25400
C569        C  0.17834882  0.51088560  0.17243170     0.87500
C570        C  0.30902314  0.49950224  0.21038633     0.87400
C571        C  0.17334524  0.49459450  0.21139080     0.87500
C572        C  0.29747195  0.51524259  0.17145793     0.87600
N573        N  0.99281618  0.54853856  0.91223821    -0.36900
N574        N  0.06601010  0.54791069  0.89028444    -0.57400
N575        N  0.99257565  0.53937636  0.86888125    -0.36900
N576        N  0.42155636  0.53932084  0.89119151    -0.57400
C577        C  0.03068082  0.56276712  0.91990244     0.26700
C578        C  0.45748104  0.55996514  0.92041150     0.26700
C579        C  0.03003317  0.54944535  0.86032437     0.26700
C580        C  0.45586285  0.53854614  0.86106575     0.26700
C581        C  0.09272718  0.54164196  0.90223802     0.35300
C582        C  0.09245259  0.53676320  0.87855636     0.35300
C583        C  0.39512874  0.53467955  0.90337293     0.35300
C584        C  0.39434759  0.52656831  0.87983601     0.35300
C585        C  0.01644936  0.58425484  0.93271795    -0.22100
C586        C  0.47235000  0.58266814  0.93295708    -0.22100
C587        C  0.01509346  0.56287880  0.84656244    -0.22100
C588        C  0.46967027  0.55284788  0.84722267    -0.22100
C589        C  0.13708331  0.52751822  0.89810119    -0.23200
C590        C  0.13694268  0.52451762  0.88301399    -0.23200
C591        C  0.35031183  0.51978475  0.89974844    -0.23200
C592        C  0.34980595  0.51466399  0.88474260    -0.23200
C593        C  0.07743380  0.55112145  0.91664276    -0.18600
C594        C  0.41057687  0.54738721  0.91746311    -0.18600
C595        C  0.40925786  0.52821409  0.86512885    -0.18500
C596        C  0.07700878  0.54043044  0.86394866    -0.18500
H597        H  0.03848181  0.59822095  0.94129587     0.14400
H598        H  0.45080489  0.59679357  0.94160363     0.14400
H599        H  0.03650528  0.57174248  0.83715282     0.14400
H600        H  0.44747438  0.56089514  0.83803079     0.14400
H601        H  0.16646091  0.52067090  0.90517764     0.12600
H602        H  0.16619774  0.51494369  0.87612423     0.12600
H603        H  0.32096649  0.51413052  0.90709729     0.12600
H604        H  0.32008035  0.50401316  0.87819651     0.12600
H605        H  0.99321534  0.52572177  0.90343395     0.25900
H606        H  0.99340554  0.52199262  0.87882044     0.25900
O607        O  0.29687836  0.53048084  0.77574627    -0.74700
O608        O  0.19615614  0.54537581  0.80341599    -0.74700
O609        O  0.28955087  0.54417147  0.80496179    -0.74800
O610        O  0.19824330  0.53160742  0.77431712    -0.74800
O611        O  0.19842027  0.95041587  0.77649168    -0.74700
O612        O  0.29052828  0.96145673  0.80712168    -0.74700
O613        O  0.19744083  0.96149489  0.80576739    -0.74700
O614        O  0.29778682  0.95004557  0.77774914    -0.74800
Ni615      Ni  0.24541536  0.54044515  0.78923341     1.25400
Ni616      Ni  0.24609044  0.95299993  0.79159938     1.25400
C617        C  0.31567070  0.49052869  0.77406470     0.87500
C618        C  0.18054147  0.51001653  0.81049430     0.87400
C619        C  0.30058974  0.50840384  0.81245320     0.87500
C620        C  0.17777033  0.49211749  0.77231470     0.87600
O621        O  0.02241207  0.78266271  0.70305603    -0.74700
O622        O  0.01147541  0.68823271  0.67327371    -0.74700
O623        O  0.01250318  0.78081717  0.67381011    -0.74800
O624        O  0.02192012  0.68474482  0.70270211    -0.74800
O625        O  0.44824925  0.68293748  0.70542356    -0.74700
O626        O  0.44193062  0.77920885  0.67622824    -0.74700
O627        O  0.44024459  0.68684094  0.67615655    -0.74700
O628        O  0.44946332  0.78111472  0.70563377    -0.74800
Ni629      Ni  0.01989089  0.73405053  0.68837039     1.25400
Ni630      Ni  0.44231131  0.73255281  0.69121556     1.25400
C631        C  0.98506022  0.80174529  0.70803484     0.87500
C632        C  0.97058099  0.67511859  0.66906203     0.87400
C633        C  0.97204419  0.79465325  0.66989758     0.87500
C634        C  0.98454467  0.66480620  0.70758369     0.87600
N635        N  0.46673159  0.48358398  0.56839706    -0.36900
N636        N  0.46703281  0.55531798  0.59028099    -0.57400
N637        N  0.46024187  0.48238791  0.61183931    -0.36900
N638        N  0.46355418  0.90893611  0.58987861    -0.57400
C639        C  0.46021239  0.52177932  0.56011710     0.26700
C640        C  0.45655624  0.94326712  0.55964185     0.26700
C641        C  0.45073937  0.52030518  0.61992834     0.26700
C642        C  0.45285633  0.94401461  0.61974030     0.26700
C643        C  0.48063202  0.58110440  0.57867568     0.35300
C644        C  0.47689955  0.58051432  0.60232439     0.35300
C645        C  0.47464534  0.88303365  0.57810862     0.35300
C646        C  0.47302956  0.88312952  0.60178850     0.35300
C647        C  0.44435079  0.50872913  0.54639164    -0.22100
C648        C  0.44184478  0.95657522  0.54584282    -0.22100
C649        C  0.92477185  0.50278624  0.63279644    -0.22100
C650        C  0.92707360  0.96481079  0.63298614    -0.22100
C651        C  0.49833585  0.62358608  0.58332107    -0.23200
C652        C  0.49599376  0.62319250  0.59839582    -0.23200
C653        C  0.49006605  0.83984354  0.58252229    -0.23200
C654        C  0.48894845  0.83988367  0.59760747    -0.23200
C655        C  0.47402778  0.56731494  0.56402281    -0.22600
C656        C  0.46850179  0.89752236  0.56350924    -0.18600
C657        C  0.46499926  0.89800328  0.61626984    -0.18500
C658        C  0.46665791  0.56561356  0.61668091    -0.18500
H659        H  0.43727833  0.53098037  0.53716057     0.14400
H660        H  0.43402063  0.93439287  0.53660199     0.14400
H661        H  0.91357908  0.52400351  0.64189990     0.14400
H662        H  0.91409943  0.94391525  0.64200338     0.14400
H663        H  0.51113041  0.65189647  0.57656654     0.12600
H664        H  0.50678171  0.65106589  0.60561362     0.12600
H665        H  0.50058087  0.81129295  0.57560554     0.12600
H666        H  0.49852073  0.81144634  0.60466862     0.12600
H667        H  0.48499975  0.48255197  0.57818231     0.25900
H668        H  0.48234630  0.48163531  0.60277946     0.25900
O669        O  0.47175836  0.77927434  0.50336465    -0.74700
O670        O  0.49093024  0.68607783  0.47439828    -0.74700
O671        O  0.47323227  0.68671496  0.50394353    -0.74800
O672        O  0.49010326  0.77830085  0.47387656    -0.74800
O673        O  0.06444506  0.77950205  0.47897055    -0.74700
O674        O  0.04342582  0.68904920  0.50899216    -0.74700
O675        O  0.06172323  0.68706113  0.47952647    -0.74700
O676        O  0.04576984  0.78138392  0.50859068    -0.74800
Ni677      Ni  0.47876325  0.73252066  0.48874426     1.25400
Ni678      Ni  0.05657394  0.73430697  0.49418411     1.25400
C679        C  0.50652184  0.79373879  0.51097048     0.87500
C680        C  0.53245792  0.67307569  0.47125370     0.87400
C681        C  0.50861642  0.67436333  0.51155189     0.87500
C682        C  0.53175931  0.79195028  0.47057834     0.87600
C683        C  0.99461946  0.48541459  0.74052795    -0.02700
N684        N  0.55515504  0.48606786  0.36995658    -0.36900
N685        N  0.56292973  0.91291796  0.39181443    -0.57400
N686        N  0.56310469  0.48526452  0.41342308    -0.36900
N687        N  0.55990461  0.55829056  0.39182149    -0.57400
C688        C  0.56603897  0.95010605  0.36183340     0.26700
C689        C  0.56236194  0.52433971  0.36169726     0.26700
C690        C  0.56978802  0.94681585  0.42204847     0.26700
C691        C  0.57483471  0.52275863  0.42155440     0.26700
C692        C  0.55410871  0.88675957  0.37988542     0.35300
C693        C  0.55468305  0.88558256  0.40354870     0.35300
C694        C  0.54587117  0.58400481  0.38036989     0.35300
C695        C  0.55199979  0.58372466  0.40394266     0.35300
C696        C  0.58008935  0.96602761  0.34816308    -0.22100
C697        C  0.57819704  0.51178331  0.34793031    -0.22100
C698        C  0.58481512  0.96063277  0.43577920    -0.22100
C699        C  0.59245271  0.50839142  0.43489835    -0.22100
C700        C  0.54191143  0.84191755  0.38400271    -0.23200
C701        C  0.54211180  0.84121143  0.39907672    -0.23200
C702        C  0.53001163  0.62665776  0.38515465    -0.23200
C703        C  0.53395168  0.62650436  0.40017756    -0.23200
C704        C  0.55885339  0.90293388  0.36539391    -0.18600
C705        C  0.54949678  0.56962620  0.36568729    -0.18600
C706        C  0.56270654  0.56890180  0.41822745    -0.18500
C707        C  0.55903436  0.90055703  0.41817529    -0.18500
H708        H  0.59093508  0.94562802  0.33884097     0.14400
H709        H  0.58585528  0.53438951  0.33875506     0.14400
H710        H  0.59365852  0.93866547  0.44493021     0.14400
H711        H  0.60328636  0.52996564  0.44398695     0.14400
H712        H  0.53360755  0.81294116  0.37690278     0.12600
H713        H  0.53388237  0.81159927  0.40594054     0.12600
H714        H  0.51709330  0.65479912  0.37852637     0.12600
H715        H  0.52469306  0.65454305  0.40747300     0.12600
H716        H  0.53682270  0.48494762  0.37979603     0.25900
H717        H  0.54244879  0.48554828  0.40411273     0.25900
O718        O  0.06542176  0.78144601  0.30485936    -0.74700
O719        O  0.04655770  0.68513142  0.27610642    -0.74700
O720        O  0.05113855  0.78301656  0.27567736    -0.74800
O721        O  0.06174047  0.68883604  0.30528259    -0.74800
O722        O  0.48660551  0.69295132  0.30990240    -0.74700
O723        O  0.47457983  0.78532670  0.27976248    -0.74700
O724        O  0.47121122  0.68809459  0.28071528    -0.74700
O725        O  0.48892040  0.78509549  0.30892287    -0.74800
Ni726      Ni  0.05883539  0.73445267  0.29009260     1.25400
Ni727      Ni  0.47753509  0.73785616  0.29472462     1.25400
C728        C  0.53024737  0.79883343  0.31227308     0.87500
C729        C  0.00528515  0.66763365  0.27439927     0.87400
C730        C  0.01144523  0.80241633  0.27361783     0.87500
C731        C  0.52765342  0.67995619  0.31362388     0.87600
C732        C  0.98862105  0.48520131  0.24352881    -0.02700
C733        C  0.99531593  0.93655064  0.25076042    -0.06400
C734        C  0.03598185  0.92623704  0.25897452    -0.17500
C735        C  0.04216744  0.88386917  0.26643383     0.10800
C736        C  0.00850034  0.84758168  0.26530429    -0.06300
C737        C  0.46939154  0.85600342  0.25694190    -0.17500
C738        C  0.46282550  0.89783064  0.24917443     0.10900
S739        S  0.09222196  0.88004161  0.27822834    -0.32500
S740        S  0.41611685  0.89378958  0.23585890    -0.32500
H741        H  0.38759598  0.86144801  0.24337516     0.28900
H742        H  0.06578350  0.86340390  0.29017018     0.28900
H743        H  0.06280746  0.95280444  0.26024953     0.19400
H744        H  0.44443019  0.82767579  0.25571328     0.19500
C745        C  0.98844457  0.53102039  0.25345352    -0.06400
C746        C  0.48505085  0.57514641  0.24591484    -0.17500
C747        C  0.49054942  0.61933062  0.25227321     0.10800
C748        C  0.99905980  0.62207665  0.26674211    -0.06300
C749        C  0.00077417  0.58122219  0.27509290    -0.17500
C750        C  0.99505666  0.53633896  0.26898229     0.10900
S751        S  0.48597371  0.66895557  0.24030568    -0.32500
S752        S  0.99753644  0.49064917  0.28245269    -0.32500
H753        H  0.96199519  0.46214951  0.27687462     0.28900
H754        H  0.48529691  0.70423970  0.25086581     0.28900
H755        H  0.47985984  0.57420891  0.23420372     0.19400
H756        H  0.00650351  0.58445900  0.28676375     0.19500
C757        C  0.55166245  0.87086193  0.35294522    -0.06400
C758        C  0.50716545  0.87000354  0.34657646    -0.17500
C759        C  0.49965858  0.84997933  0.33286880     0.10800
C760        C  0.53729187  0.82847465  0.32541388    -0.06300
C761        C  0.58209603  0.83022026  0.33179543    -0.17500
C762        C  0.58953496  0.85061904  0.34547733     0.10900
S763        S  0.44198723  0.85626792  0.32523476    -0.32500
S764        S  0.64853188  0.85189614  0.35244458    -0.32500
H765        H  0.13072090  0.84887216  0.36870333     0.28900
H766        H  0.45866815  0.86712336  0.31111743     0.28900
H767        H  0.47854887  0.88759613  0.35198956     0.19400
H768        H  0.10929188  0.80577489  0.32748598     0.19500
C769        C  0.54032162  0.60258761  0.35365731    -0.06400
C770        C  0.07547366  0.62969960  0.34860592    -0.17500
C771        C  0.07336622  0.65316332  0.33526088     0.10800
C772        C  0.53343308  0.65320018  0.32733575    -0.06300
C773        C  0.49689093  0.62344949  0.33189955    -0.17500
C774        C  0.49985480  0.59828144  0.34492414     0.10900
S775        S  0.12559769  0.68429896  0.32977147    -0.32500
S776        S  0.45172453  0.55977341  0.34953410    -0.32500
H777        H  0.45833297  0.56120533  0.36474394     0.28900
H778        H  0.10135242  0.72525997  0.32690631     0.28900
H779        H  0.10803838  0.62975523  0.35465364     0.19400
H780        H  0.46593008  0.61933726  0.32519382     0.19500
C781        C  0.53967761  0.81934692  0.45705381    -0.06400
C782        C  0.50358301  0.84772530  0.45201088    -0.17500
C783        C  0.50785830  0.87196604  0.43883147     0.10800
C784        C  0.54915269  0.86800204  0.43037445    -0.06300
C785        C  0.08257735  0.83572484  0.43501565    -0.17500
C786        C  0.07856628  0.81251010  0.44842703     0.10900
S787        S  0.46015690  0.90893296  0.43364948    -0.32500
S788        S  0.12497343  0.77361385  0.45306668    -0.32500
H789        H  0.13926075  0.80066820  0.46509233     0.28900
H790        H  0.46796485  0.90652406  0.41848894     0.28900
H791        H  0.47180379  0.85128861  0.45841975     0.19400
H792        H  0.11381070  0.83139103  0.42839541     0.19500
C793        C  0.54030113  0.64409141  0.45807040    -0.06400
C794        C  0.07607702  0.64991014  0.45109359    -0.17500
C795        C  0.08281060  0.62920535  0.43741806     0.10800
C796        C  0.55488245  0.60031793  0.43079928    -0.06300
C797        C  0.51145773  0.59684504  0.43791079    -0.17500
C798        C  0.50395906  0.61756893  0.45150235     0.10900
S799        S  0.13875437  0.63780229  0.42853253    -0.32500
S800        S  0.44820760  0.60599328  0.46018144    -0.32500
H801        H  0.46723732  0.60041401  0.47422810     0.28900
H802        H  0.12229872  0.63330486  0.41416100     0.28900
H803        H  0.10402256  0.67126149  0.45555447     0.19400
H804        H  0.48386222  0.57560635  0.43315225     0.19500
C805        C  0.47900822  0.86553427  0.55129017    -0.06400
C806        C  0.02153402  0.87539680  0.54430916    -0.17500
C807        C  0.02963107  0.85417692  0.53080809     0.10800
C808        C  0.49741690  0.82195750  0.52422431    -0.06300
C809        C  0.45342433  0.81699015  0.53114783    -0.17500
C810        C  0.44388085  0.83839424  0.54453914     0.10900
S811        S  0.08169787  0.87153446  0.52090734    -0.32500
S812        S  0.38555774  0.83182346  0.55200259    -0.32500
H813        H  0.39763091  0.83866557  0.56670363     0.28900
H814        H  0.06024572  0.87075027  0.50709041     0.28900
H815        H  0.04657205  0.90099245  0.54827468     0.19400
H816        H  0.42626595  0.79562897  0.52622470     0.19500
C817        C  0.48390522  0.60030952  0.55191580    -0.06400
C818        C  0.01506491  0.59172638  0.54380168    -0.17500
C819        C  0.02516992  0.61565193  0.53080848     0.10800
C820        C  0.50113163  0.64634836  0.52505743    -0.06300
C821        C  0.45662814  0.64729363  0.53176116    -0.17500
C822        C  0.44795357  0.62534920  0.54515517     0.10900
S823        S  0.07849594  0.60266679  0.52095624    -0.32500
S824        S  0.38978055  0.62874831  0.55279374    -0.32500
H825        H  0.40363407  0.62641018  0.56748490     0.28900
H826        H  0.09665690  0.57097064  0.53108228     0.28900
H827        H  0.03932915  0.56621799  0.54784899     0.19400
H828        H  0.42840835  0.66619306  0.52671475     0.19500
C829        C  0.96213836  0.87155731  0.62988257    -0.06400
C830        C  0.99987354  0.87981437  0.63936535    -0.17500
C831        C  0.00283146  0.85722971  0.65283302     0.10800
C832        C  0.96796201  0.82435983  0.65683449    -0.06300
C833        C  0.43682157  0.81478730  0.64729447    -0.17500
C834        C  0.43309879  0.83689592  0.63372920     0.10900
S835        S  0.05059069  0.87370330  0.66466569    -0.32500
S836        S  0.37970353  0.82712011  0.62359014    -0.32500
H837        H  0.38329731  0.86447092  0.61381777     0.28900
H838        H  0.02442256  0.86985270  0.67770280     0.28900
H839        H  0.02628969  0.90562079  0.63647588     0.19400
H840        H  0.40823702  0.79250664  0.65091538     0.19500
C841        C  0.96576545  0.64670058  0.65552922    -0.06400
C842        C  0.00371254  0.61945575  0.65103363    -0.17500
C843        C  0.00235154  0.59406733  0.63798186     0.10800
C844        C  0.96246042  0.59625455  0.62894387    -0.06300
C845        C  0.43676662  0.62777565  0.63265123    -0.17500
C846        C  0.43630307  0.65169021  0.64593239     0.10900
S847        S  0.05190900  0.55805172  0.63377374    -0.32500
S848        S  0.38806187  0.69013255  0.64903385    -0.32500
H849        H  0.37015415  0.66332147  0.66069221     0.28900
H850        H  0.04623143  0.55767591  0.61853041     0.28900
H851        H  0.03463991  0.61748998  0.65781369     0.19400
H852        H  0.40763906  0.63130596  0.62519381     0.19500
C853        C  0.98836540  0.84889444  0.71546789    -0.06400
C854        C  0.03175299  0.86450520  0.72082885    -0.17500
C855        C  0.03889448  0.90949298  0.72668191     0.10800
C856        C  0.99973054  0.94020389  0.72887155    -0.06300
C857        C  0.46098517  0.92484066  0.72138017    -0.17500
C858        C  0.45527986  0.88053650  0.71501950     0.10900
S859        S  0.10057380  0.92357752  0.72871357    -0.32500
S860        S  0.39997844  0.86865282  0.70636288    -0.32500
H861        H  0.38758690  0.83414442  0.71660854     0.28900
H862        H  0.09863283  0.97157487  0.72810609     0.28900
H863        H  0.06154926  0.84174011  0.71989081     0.19400
H864        H  0.43118148  0.94732262  0.72134135     0.19500
C865        C  0.98667182  0.61773538  0.71501879    -0.06400
C866        C  0.44799099  0.59776229  0.72169873    -0.17500
C867        C  0.44563574  0.55255740  0.72779428     0.10800
C868        C  0.98696636  0.52840104  0.72975897    -0.06300
C869        C  0.02473256  0.54390989  0.72088238    -0.17500
C870        C  0.02540492  0.58743006  0.71379222     0.10900
S871        S  0.38730438  0.52834104  0.73032627    -0.32500
S872        S  0.07702300  0.60113103  0.70317951    -0.32500
H873        H  0.05145787  0.61152494  0.69050267     0.28900
H874        H  0.36344456  0.57062570  0.73138326     0.28900
H875        H  0.41661119  0.61838674  0.72141103     0.19400
H876        H  0.05537390  0.52310301  0.71988079     0.19500
C877        C  0.36343170  0.48654860  0.76680568    -0.06400
C878        C  0.38204273  0.94187689  0.76002639    -0.17500
C879        C  0.42680294  0.93751952  0.75339180     0.10800
C880        C  0.45180933  0.47835791  0.75130218    -0.06300
C881        C  0.44017616  0.51855828  0.75938435    -0.17500
C882        C  0.39739083  0.52300455  0.76699645     0.10900
S883        S  0.44896805  0.87922746  0.75163541    -0.32500
S884        S  0.38944135  0.57599437  0.77709453    -0.32500
H885        H  0.37284291  0.55315931  0.78972310     0.28900
H886        H  0.40541611  0.85588333  0.75202269     0.28900
H887        H  0.35982991  0.91141994  0.76127141     0.19400
H888        H  0.46339912  0.54831992  0.75906902     0.19500
C889        C  0.03961365  0.49187190  0.75055452    -0.06400
C890        C  0.05620701  0.95093003  0.75756485    -0.17500
C891        C  0.10088364  0.94800930  0.76410124     0.10800
C892        C  0.13084637  0.49001441  0.76449659    -0.06300
C893        C  0.11287468  0.53101537  0.75844225    -0.17500
C894        C  0.06751363  0.53329448  0.75229782     0.10900
S895        S  0.11402328  0.89420015  0.77306069    -0.32500
S896        S  0.04426877  0.59099719  0.75016353    -0.32500
H897        H  0.08751415  0.61364161  0.74765008     0.28900
H898        H  0.15297080  0.88573988  0.76399795     0.28900
H899        H  0.03389266  0.92044646  0.75788481     0.19400
H900        H  0.13348478  0.56265499  0.75931751     0.19500
C901        C  0.32690100  0.51380722  0.82633344    -0.06400
C902        C  0.35499617  0.96975652  0.83068496    -0.17500
C903        C  0.37903187  0.97232893  0.84398256     0.10800
C904        C  0.37574048  0.51960081  0.85309106    -0.06300
C905        C  0.34737352  0.55601252  0.84858878    -0.17500
C906        C  0.32244421  0.55333271  0.83549931     0.10900
S907        S  0.41381849  0.92319110  0.84916510    -0.32500
S908        S  0.28396993  0.60060315  0.83163114    -0.32500
H909        H  0.24726441  0.57030331  0.82793561     0.28900
H910        H  0.41389067  0.93218577  0.86426458     0.28900
H911        H  0.35733002  0.93828029  0.82425395     0.19400
H912        H  0.34539694  0.58715084  0.85520411     0.19500
C913        C  0.10925208  0.53182452  0.85148868    -0.06400
C914        C  0.10898221  0.97475036  0.84302961    -0.17500
C915        C  0.12818400  0.96994408  0.82901780     0.10800
C916        C  0.15059009  0.51743349  0.82364345    -0.06300
C917        C  0.15260285  0.56117819  0.83050669    -0.17500
C918        C  0.13312936  0.56852443  0.84435561     0.10900
S919        S  0.11499157  0.91695205  0.81930848    -0.32500
S920        S  0.13764777  0.62630468  0.85186923    -0.32500
H921        H  0.13217909  0.61393751  0.86661040     0.28900
H922        H  0.10980820  0.93884279  0.80566221     0.28900
H923        H  0.08821338  0.94646485  0.84758890     0.19400
H924        H  0.17032298  0.59005773  0.82519408     0.19500
C925        C  0.35464355  0.49758186  0.21858558    -0.06400
C926        C  0.35461292  0.49883013  0.23383962    -0.17500
C927        C  0.39651603  0.49583911  0.24200773     0.10800
C928        C  0.44151221  0.49203879  0.23482699    -0.06300
C929        C  0.44640136  0.99705813  0.21866978    -0.17500
C930        C  0.40437899  0.99940004  0.21060497     0.10900
S931        S  0.39025139  0.49324325  0.26164429    -0.32500
S932        S  0.40933708  0.00328851  0.19102854    -0.32500
H933        H  0.37389538  0.97015337  0.18840153     0.28900
H934        H  0.34106167  0.49270177  0.26246565     0.28900
H935        H  0.32114150  0.50096158  0.23938901     0.19400
H936        H  0.47897552  0.99902814  0.21266012     0.19500
C937        C  0.03639186  0.48780826  0.23406096    -0.06400
C938        C  0.07356422  0.51868082  0.23840047    -0.17500
C939        C  0.11807271  0.51999138  0.23182150     0.10800
C940        C  0.12864718  0.49008486  0.22017121    -0.06300
C941        C  0.10005863  0.96005893  0.21592346    -0.17500
C942        C  0.05507396  0.95724707  0.22263748     0.10900
S943        S  0.16113559  0.55893987  0.23965460    -0.32500
S944        S  0.01660245  0.91075500  0.21677124    -0.32500
H945        H  0.04784662  0.88835513  0.20725068     0.28900
H946        H  0.19915035  0.52895942  0.23760390     0.28900
H947        H  0.07025401  0.54113886  0.24775488     0.19400
H948        H  0.10843214  0.93672208  0.20704667     0.19500
C949        C  0.33082364  0.54342977  0.95740273    -0.06400
C950        C  0.32902953  0.58266113  0.94823898    -0.17500
C951        C  0.35219139  0.58401898  0.93473060     0.10800
C952        C  0.37794511  0.54525045  0.93011312    -0.06300
C953        C  0.38767242  0.00366844  0.93958039    -0.17500
C954        C  0.36437472  0.00203378  0.95311283     0.10900
S955        S  0.34987076  0.63728884  0.92440022    -0.32500
S956        S  0.37799632  0.95636548  0.96589349    -0.32500
H957        H  0.41035407  0.93297179  0.95699320     0.28900
H958        H  0.35848624  0.61811917  0.91056767     0.28900
H959        H  0.30897477  0.61260592  0.95153569     0.19400
H960        H  0.41326290  0.97755346  0.93688666     0.19500
C961        C  0.10952601  0.54744473  0.92934618    -0.06400
C962        C  0.11315930  0.99511431  0.93728068    -0.17500
C963        C  0.13321579  0.99465237  0.95125328     0.10800
C964        C  0.15487788  0.54648528  0.95680678    -0.06300
C965        C  0.16589469  0.58069945  0.94629767    -0.17500
C966        C  0.14321359  0.58197851  0.93274629     0.10900
S967        S  0.12205319  0.94526798  0.96302308    -0.32500
S968        S  0.15819149  0.62907855  0.92051676    -0.32500
H969        H  0.11454306  0.63215091  0.91359937     0.28900
H970        H  0.09417318  0.91949068  0.95323795     0.28900
H971        H  0.09131349  0.96624527  0.93377172     0.19400
H972        H  0.19236028  0.60688347  0.94867541     0.19500
C973        C  0.32409098  0.52102367  0.15757272    -0.06400
C974        C  0.35212037  0.98417634  0.15153499    -0.17500
C975        C  0.37414055  0.98548262  0.13788057     0.10800
C976        C  0.37017032  0.52507843  0.13014276    -0.06300
C977        C  0.34217052  0.56177687  0.13479466    -0.17500
C978        C  0.31934400  0.56037467  0.14836976     0.10900
S979        S  0.40572473  0.93476112  0.13213379    -0.32500
S980        S  0.28420661  0.60964837  0.15305102    -0.32500
H981        H  0.31324495  0.62226399  0.16482803     0.28900
H982        H  0.40150263  0.94270507  0.11704279     0.28900
H983        H  0.35410306  0.95265353  0.15794539     0.19400
H984        H  0.34006209  0.59275238  0.12812401     0.19500
C985        C  0.15001819  0.51561562  0.15891365    -0.06400
C986        C  0.15613968  0.55599318  0.15040511    -0.17500
C987        C  0.13422429  0.56101249  0.13682322     0.10800
C988        C  0.10645879  0.52426314  0.13123764    -0.06300
C989        C  0.10145466  0.98795744  0.14036265    -0.17500
C990        C  0.12259979  0.98381702  0.15408336     0.10900
S991        S  0.14234603  0.61557194  0.12739724    -0.32500
S992        S  0.10483580  0.93528493  0.16533913    -0.32500
H993        H  0.10652624  0.96008890  0.17858694     0.28900
H994        H  0.09889041  0.61623732  0.12028865     0.28900
H995        H  0.17823429  0.58408465  0.15435668     0.19400
H996        H  0.07603515  0.96187623  0.13698613     0.19500
C997        C  0.32903700  0.54272486  0.02561021    -0.06400
C998        C  0.32006495  0.57655021  0.03634360    -0.17500
C999        C  0.34412975  0.57726867  0.04966010     0.10800
C1000       C  0.37829374  0.04295727  0.05207917    -0.06300
C1001       C  0.38769410  0.00809873  0.04177493    -0.17500
C1002       C  0.36564339  0.00723899  0.02817262     0.10900
S1003       S  0.33117795  0.62345534  0.06230601    -0.32500
S1004       S  0.38428437  0.96390692  0.01524041    -0.32500
H1005       H  0.38094134  0.99289835  0.00292186     0.28900
H1006       H  0.37653267  0.62798636  0.06806788     0.28900
H1007       H  0.29398172  0.60278222  0.03435174     0.19400
H1008       H  0.41437411  0.98272199  0.04408573     0.19500
C1009       C  0.11456323  0.04205431  0.05347717    -0.06400
C1010       C  0.10553590  0.00516214  0.04377802    -0.17500
C1011       C  0.12548669  0.00405045  0.02978131     0.10800
C1012       C  0.15211978  0.54619834  0.02554094    -0.06300
C1013       C  0.16212780  0.58112761  0.03588271    -0.17500
C1014       C  0.14035882  0.58167373  0.04965113     0.10900
S1015       S  0.10619766  0.95852500  0.01761743    -0.32500
S1016       S  0.15482837  0.62925818  0.06172311    -0.32500
H1017       H  0.11348105  0.62877609  0.07008084     0.28900
H1018       H  0.10654236  0.98656376  0.00501977     0.28900
H1019       H  0.08000311  0.97863183  0.04678794     0.19400
H1020       H  0.18749422  0.60821218  0.03327454     0.19500
N1021       N  0.99382083  0.03504782  0.11339757    -0.36900
N1022       N  0.56425656  0.53788856  0.09314468    -0.57400
N1023       N  0.49332310  0.54356918  0.07082729    -0.36900
N1024       N  0.91726713  0.53950349  0.09179297    -0.57400
C1025       C  0.52901815  0.04321508  0.12202448     0.26700
C1026       C  0.95501896  0.04403052  0.12135917     0.26700
C1027       C  0.53258134  0.55607864  0.06342398     0.26700
C1028       C  0.95410768  0.56089681  0.06280620     0.26700
C1029       C  0.59194889  0.02978789  0.10384281     0.35300
C1030       C  0.59131942  0.52984691  0.08130367     0.35300
C1031       C  0.89485604  0.02899610  0.10247107     0.35300
C1032       C  0.89158957  0.53369696  0.07957330     0.35300
C1033       C  0.51421218  0.05827598  0.13566797    -0.22100
C1034       C  0.96764431  0.05952983  0.13516391    -0.22100
C1035       C  0.52059754  0.57856515  0.05059359    -0.22100
C1036       C  0.96867363  0.58511980  0.05047179    -0.22100
C1037       C  0.63632979  0.01682027  0.09936633    -0.23200
C1038       C  0.63408705  0.51229690  0.08559850    -0.23200
C1039       C  0.85125346  0.01425043  0.09759967    -0.23200
C1040       C  0.84725621  0.51699053  0.08312795    -0.23200
C1041       C  0.57582088  0.03256576  0.11846859    -0.18600
C1042       C  0.90878854  0.03281518  0.11717046    -0.18600
C1043       C  0.90764245  0.54611651  0.06548609    -0.18500
C1044       C  0.57835156  0.54196055  0.06692664    -0.18500
H1045       H  0.53569326  0.06662816  0.14504704     0.14400
H1046       H  0.94463765  0.06838254  0.14415354     0.14400
H1047       H  0.54401976  0.59164417  0.04217172     0.14400
H1048       H  0.94695211  0.59901917  0.04189646     0.14400
H1049       H  0.66495513  0.00598348  0.10622887     0.12600
H1050       H  0.66340206  0.50346151  0.07863302     0.12600
H1051       H  0.82178166  0.00261782  0.10418722     0.12600
H1052       H  0.81865009  0.50970150  0.07572024     0.12600
H1053       H  0.99457937  0.01695483  0.10356613     0.25900
H1054       H  0.49167881  0.52070701  0.07961348     0.25900
O1055       O  0.78799844  0.49987142  0.97661880    -0.74700
O1056       O  0.69520088  0.49929699  0.00703810    -0.74700
O1057       O  0.69470445  0.49864650  0.97684231    -0.74800
O1058       O  0.78853252  0.50083877  0.00665588    -0.74800
O1059       O  0.79179951  0.07661931  0.00615298    -0.74700
O1060       O  0.69980590  0.07760404  0.97591280    -0.74700
O1061       O  0.69869715  0.07756084  0.00605570    -0.74700
O1062       O  0.79305457  0.07663612  0.97616803    -0.74800
Ni1063     Ni  0.74155387  0.49688865  0.99180211     1.25400
Ni1064     Ni  0.74584316  0.07983712  0.99107149     1.25400
C1065       C  0.80607717  0.03783154  0.97075264     0.87500
C1066       C  0.68445562  0.03907905  0.01164465     0.87400
C1067       C  0.68562436  0.03903753  0.97041787     0.87500
C1068       C  0.80453136  0.03787537  0.01161560     0.87600
O1069       O  0.69186116  0.46986918  0.17665704    -0.74700
O1070       O  0.79082129  0.46086296  0.20496768    -0.74700
O1071       O  0.69225804  0.45893244  0.20604038    -0.74800
O1072       O  0.78485911  0.47143990  0.17553541    -0.74800
O1073       O  0.78842353  0.05039116  0.17743954    -0.74700
O1074       O  0.69662450  0.03597176  0.20803098    -0.74700
O1075       O  0.79505480  0.03962283  0.20680080    -0.74700
O1076       O  0.69543280  0.04715819  0.17858452    -0.74800
Ni1077     Ni  0.74002190  0.46246111  0.19094939     1.25400
Ni1078     Ni  0.74385341  0.04587221  0.19305954     1.25400
C1079       C  0.68205353  0.01047265  0.17175912     0.87500
C1080       C  0.81472954  0.00044364  0.20907578     0.87400
C1081       C  0.67890116  0.99563717  0.21074964     0.87500
C1082       C  0.80115028  0.01468402  0.17019938     0.87600
N1083       N  0.49643060  0.04389995  0.91191516    -0.36900
N1084       N  0.56905840  0.03556026  0.89028227    -0.57400
N1085       N  0.49539867  0.02556010  0.86875926    -0.36900
N1086       N  0.92460722  0.03254389  0.89087860    -0.57400
C1087       C  0.53461436  0.05742062  0.91955116     0.26700
C1088       C  0.96212496  0.05157832  0.92008683     0.26700
C1089       C  0.53334454  0.03344434  0.86019728     0.26700
C1090       C  0.95738542  0.03190097  0.86051231     0.26700
C1091       C  0.59578684  0.03110983  0.90231970     0.35300
C1092       C  0.59521855  0.02198576  0.87877206     0.35300
C1093       C  0.89911528  0.02666086  0.90321609     0.35300
C1094       C  0.89725868  0.01871924  0.87966679     0.35300
C1095       C  0.52091277  0.08064703  0.93211718    -0.22100
C1096       C  0.97764573  0.07292020  0.93278781    -0.22100
C1097       C  0.51911522  0.04584289  0.84625318    -0.22100
C1098       C  0.97023054  0.04636117  0.84658778    -0.22100
C1099       C  0.63981553  0.01541348  0.89844583    -0.23200
C1100       C  0.63951394  0.00976976  0.88343616    -0.23200
C1101       C  0.85478827  0.00982724  0.89983716    -0.23200
C1102       C  0.85361173  0.00477106  0.88483150    -0.23200
C1103       C  0.58089780  0.04367401  0.91651699    -0.18600
C1104       C  0.91495826  0.03956841  0.91726098    -0.18600
C1105       C  0.91115183  0.02102883  0.86486183    -0.18500
C1106       C  0.58013728  0.02448029  0.86411129    -0.18500
H1107       H  0.54322637  0.09448540  0.94064505     0.14400
H1108       H  0.95653395  0.08618841  0.94167834     0.14400
H1109       H  0.54087792  0.05315342  0.83679717     0.14400
H1110       H  0.94741648  0.05422905  0.83752992     0.14400
H1111       H  0.66915058  0.00946526  0.90562502     0.12600
H1112       H  0.66860284  0.99866496  0.87671714     0.12600
H1113       H  0.82628018  0.00249248  0.90736364     0.12600
H1114       H  0.82409291  0.99255891  0.87845783     0.12600
H1115       H  0.49602867  0.02005357  0.90339134     0.25900
H1116       H  0.49544540  0.00963395  0.87894994     0.25900
O1117       O  0.79803659  0.02868960  0.77560289    -0.74700
O1118       O  0.69742580  0.03806382  0.80357763    -0.74700
O1119       O  0.79075282  0.03912749  0.80497656    -0.74800
O1120       O  0.69961842  0.02771598  0.77430329    -0.74800
O1121       O  0.69552263  0.45154575  0.77774806    -0.74700
O1122       O  0.78768239  0.46560141  0.80819582    -0.74700
O1123       O  0.69465458  0.46362262  0.80703473    -0.74700
O1124       O  0.79476875  0.45313538  0.77892644    -0.74800
Ni1125     Ni  0.74658278  0.03597659  0.78926839     1.25400
Ni1126     Ni  0.74321535  0.45562538  0.79280515     1.25400
C1127       C  0.81759410  0.98935330  0.77342483     0.87500
C1128       C  0.68308784  0.00155689  0.81033590     0.87400
C1129       C  0.80253674  0.00294598  0.81213481     0.87500
C1130       C  0.68005409  0.98808739  0.77182435     0.87600
O1131       O  0.52218423  0.28174596  0.70304041    -0.74700
O1132       O  0.51476599  0.18779919  0.67313855    -0.74700
O1133       O  0.51390979  0.27995504  0.67364760    -0.74800
O1134       O  0.52360178  0.18398566  0.70254317    -0.74800
O1135       O  0.94861767  0.18536516  0.70493985    -0.74700
O1136       O  0.93992791  0.28221700  0.67612331    -0.74700
O1137       O  0.94004263  0.19000664  0.67561901    -0.74700
O1138       O  0.94830075  0.28358734  0.70551357    -0.74800
Ni1139     Ni  0.52141264  0.23341409  0.68827873     1.25400
Ni1140     Ni  0.94159926  0.23524893  0.69091381     1.25400
C1141       C  0.48428980  0.29990751  0.70796298     0.87500
C1142       C  0.47435034  0.17436946  0.66863953     0.87400
C1143       C  0.47343802  0.29286445  0.66943525     0.87500
C1144       C  0.48631346  0.16319670  0.70712367     0.87600
N1145       N  0.96928462  0.98337538  0.56843089    -0.36900
N1146       N  0.96615478  0.05740103  0.58953735    -0.57400
N1147       N  0.96047917  0.98601071  0.61176821    -0.36900
N1148       N  0.95951836  0.40903165  0.58928472    -0.57400
C1149       C  0.96165176  0.02055849  0.55979702     0.26700
C1150       C  0.95343205  0.44473355  0.55946409     0.26700
C1151       C  0.95043407  0.02458646  0.61948852     0.26700
C1152       C  0.94447567  0.44235645  0.61918888     0.26700
C1153       C  0.97946137  0.08241445  0.57772660     0.35300
C1154       C  0.97554835  0.08376815  0.60137271     0.35300
C1155       C  0.97334744  0.38442591  0.57753192     0.35300
C1156       C  0.96951612  0.38342867  0.60116400     0.35300
C1157       C  0.94567271  0.00593341  0.54624931    -0.22100
C1158       C  0.93740210  0.45839054  0.54585702    -0.22100
C1159       C  0.43379361  0.00542488  0.63292143    -0.22100
C1160       C  0.42652366  0.45954462  0.63283827    -0.22100
C1161       C  0.99639275  0.12555840  0.58201643    -0.23200
C1162       C  0.99395087  0.12640093  0.59709048    -0.23200
C1163       C  0.99140610  0.34225341  0.58189536    -0.23200
C1164       C  0.98893297  0.34159980  0.59697355    -0.23200
C1165       C  0.97438326  0.06675507  0.56320230    -0.22600
C1166       C  0.96715218  0.39928967  0.56300450    -0.18600
C1167       C  0.95833892  0.39691089  0.61556540    -0.18500
C1168       C  0.96584023  0.06980976  0.61586449    -0.18500
H1169       H  0.93764771  0.02730327  0.53688349     0.14400
H1170       H  0.92971164  0.43646901  0.53654066     0.14400
H1171       H  0.42294579  0.02737419  0.64189375     0.14400
H1172       H  0.41335997  0.43791661  0.64165611     0.14400
H1173       H  0.00908465  0.15335161  0.57503459     0.12600
H1174       H  0.00439971  0.15498015  0.60407947     0.12600
H1175       H  0.00458275  0.31487635  0.57495768     0.12600
H1176       H  0.99976893  0.31358376  0.60401741     0.12600
H1177       H  0.98769417  0.98369592  0.57820439     0.25900
H1178       H  0.98246882  0.98472809  0.60269363     0.25900
O1179       O  0.97066165  0.28004739  0.50295762    -0.74700
O1180       O  0.99127538  0.18706433  0.47390857    -0.74700
O1181       O  0.97252098  0.18770687  0.50338239    -0.74800
O1182       O  0.98978434  0.27966979  0.47354310    -0.74800
O1183       O  0.56119122  0.28145841  0.47861629    -0.74700
O1184       O  0.54233340  0.18922365  0.50812839    -0.74700
O1185       O  0.56050525  0.18884062  0.47875963    -0.74700
O1186       O  0.54247396  0.28163782  0.50813299    -0.74800
Ni1187     Ni  0.97833058  0.23353910  0.48826813     1.25400
Ni1188     Ni  0.55433084  0.23540965  0.49357119     1.25400
C1189       C  0.00517290  0.29442581  0.51069350     0.87500
C1190       C  0.03311031  0.17460084  0.47086518     0.87400
C1191       C  0.00785363  0.17509077  0.51093741     0.87500
C1192       C  0.03131069  0.29430042  0.47052378     0.87600
C1193       C  0.49791211  0.98285483  0.73946462    -0.02700
N1194       N  0.05496422  0.98379359  0.37019578    -0.36900
N1195       N  0.05770216  0.41492254  0.39185710    -0.57400
N1196       N  0.06317613  0.98165362  0.41361759    -0.36900
N1197       N  0.05983969  0.05537406  0.39226394    -0.57400
C1198       C  0.06245881  0.45086633  0.36195459     0.26700
C1199       C  0.06149988  0.02225841  0.36196660     0.26700
C1200       C  0.06873274  0.44958682  0.42170205     0.26700
C1201       C  0.07500458  0.01886199  0.42185125     0.26700
C1202       C  0.04749660  0.38864841  0.38006646     0.35300
C1203       C  0.04892634  0.38840147  0.40371747     0.35300
C1204       C  0.04653512  0.08180686  0.38087199     0.35300
C1205       C  0.05311343  0.08084350  0.40446614     0.35300
C1206       C  0.07777876  0.46606002  0.34834512    -0.22100
C1207       C  0.07717754  0.00999380  0.34814661    -0.22100
C1208       C  0.08793702  0.46337914  0.43492239    -0.22100
C1209       C  0.09351124  0.00416066  0.43503276    -0.22100
C1210       C  0.03352904  0.34450157  0.38439652    -0.23200
C1211       C  0.03428647  0.34438873  0.39948177    -0.23200
C1212       C  0.03255523  0.12498263  0.38578585    -0.23200
C1213       C  0.03673001  0.12436805  0.40080705    -0.23200
C1214       C  0.05320654  0.40405534  0.36553527    -0.18600
C1215       C  0.04897587  0.06755675  0.36612158    -0.18600
C1216       C  0.06274473  0.06510747  0.41874924    -0.18500
C1217       C  0.05571687  0.40363326  0.41820745    -0.18500
H1218       H  0.08804018  0.44509534  0.33908033     0.14400
H1219       H  0.08444058  0.03275900  0.33898228     0.14400
H1220       H  0.09905052  0.44137477  0.44380774     0.14400
H1221       H  0.10474094  0.02558563  0.44411610     0.14400
H1222       H  0.02399814  0.31555530  0.37743165     0.12600
H1223       H  0.02538259  0.31533885  0.40650441     0.12600
H1224       H  0.02066646  0.15377514  0.37924328     0.12600
H1225       H  0.02864000  0.15258386  0.40817290     0.12600
H1226       H  0.03694154  0.98235055  0.38008534     0.25900
H1227       H  0.04200213  0.98219039  0.40441872     0.25900
O1228       O  0.56211534  0.28295876  0.30523220    -0.74700
O1229       O  0.54729428  0.18576926  0.27664282    -0.74700
O1230       O  0.54934947  0.28361030  0.27607099    -0.74800
O1231       O  0.56066961  0.19038052  0.30599819    -0.74800
O1232       O  0.98526285  0.19133466  0.31029600    -0.74700
O1233       O  0.97296868  0.28338482  0.28003463    -0.74700
O1234       O  0.97077890  0.18600711  0.28103352    -0.74700
O1235       O  0.98668186  0.28362244  0.30922098    -0.74800
Ni1236     Ni  0.55749060  0.23553183  0.29061764     1.25400
Ni1237     Ni  0.97613009  0.23602886  0.29503728     1.25400
C1238       C  0.02785859  0.29771695  0.31264564     0.87500
C1239       C  0.50646751  0.16765240  0.27462531     0.87400
C1240       C  0.50939739  0.30244168  0.27396234     0.87500
C1241       C  0.02634081  0.17848263  0.31403973     0.87600
C1242       C  0.49394626  0.98614075  0.24297493    -0.02700
C1243       C  0.49134261  0.43706176  0.25149702    -0.06400
C1244       C  0.53275713  0.42655013  0.25931767    -0.17500
C1245       C  0.53960050  0.38407431  0.26666040     0.10800
C1246       C  0.50582048  0.34780551  0.26577732    -0.06300
C1247       C  0.96595178  0.35495134  0.25779652    -0.17500
C1248       C  0.95876239  0.39653211  0.24996042     0.10900
S1249       S  0.59077815  0.38008217  0.27797032    -0.32500
S1250       S  0.91038695  0.39241918  0.23725967    -0.32500
H1251       H  0.91106893  0.34405188  0.23511653     0.28900
H1252       H  0.56549076  0.36341443  0.29014696     0.28900
H1253       H  0.55986062  0.45297343  0.26031038     0.19400
H1254       H  0.94009105  0.32720228  0.25713292     0.19500
C1255       C  0.49366821  0.03158480  0.25307847    -0.06400
C1256       C  0.99079124  0.07469285  0.24554222    -0.17500
C1257       C  0.99497060  0.11855763  0.25219370     0.10800
C1258       C  0.50145731  0.12226638  0.26679109    -0.06300
C1259       C  0.50392322  0.08116074  0.27497654    -0.17500
C1260       C  0.49924603  0.03643612  0.26868076     0.10900
S1261       S  0.99378996  0.16902728  0.24056015    -0.32500
S1262       S  0.50118583  0.99054291  0.28210935    -0.32500
H1263       H  0.46639655  0.96161765  0.27630739     0.28900
H1264       H  0.97370507  0.19904985  0.25087884     0.28900
H1265       H  0.98793181  0.07421219  0.23374513     0.19400
H1266       H  0.50910840  0.08408270  0.28668117     0.19500
C1267       C  0.04617964  0.37171079  0.35311936    -0.06400
C1268       C  0.00302862  0.37311487  0.34590433    -0.17500
C1269       C  0.99687960  0.35241644  0.33221139     0.10800
C1270       C  0.03429924  0.32794046  0.32567281    -0.06300
C1271       C  0.07785289  0.32766826  0.33282706    -0.17500
C1272       C  0.08401873  0.34880830  0.34646079     0.10900
S1273       S  0.94167128  0.36189669  0.32327660    -0.32500
S1274       S  0.14163830  0.34777788  0.35441103    -0.32500
H1275       H  0.63497635  0.35691424  0.36632890     0.28900
H1276       H  0.96177336  0.36844958  0.30932823     0.28900
H1277       H  0.97467201  0.39292159  0.35062457     0.19400
H1278       H  0.60776027  0.31530359  0.32573341     0.19500
C1279       C  0.03969944  0.10094438  0.35417480    -0.06400
C1280       C  0.57250097  0.13208886  0.34953195    -0.17500
C1281       C  0.57001687  0.15686542  0.33642173     0.10800
C1282       C  0.03225863  0.15169507  0.32780686    -0.06300
C1283       C  0.99473670  0.12399574  0.33291700    -0.17500
C1284       C  0.99802628  0.09862324  0.34592423     0.10900
S1285       S  0.61912886  0.19432705  0.33216820    -0.32500
S1286       S  0.94865241  0.06229236  0.35103586    -0.32500
H1287       H  0.95848264  0.06012041  0.36604994     0.28900
H1288       H  0.59065126  0.23214922  0.32885335     0.28900
H1289       H  0.60408524  0.13431992  0.35603698     0.19400
H1290       H  0.96276667  0.12143854  0.32661648     0.19500
C1291       C  0.03907254  0.32292891  0.45726511    -0.06400
C1292       C  0.00258107  0.35120212  0.45242904    -0.17500
C1293       C  0.00610666  0.37556404  0.43925894     0.10800
C1294       C  0.04695055  0.37173876  0.43060671    -0.06300
C1295       C  0.58211889  0.34031482  0.43537397    -0.17500
C1296       C  0.57697359  0.31610826  0.44856709     0.10900
S1297       S  0.95790073  0.41205256  0.43422860    -0.32500
S1298       S  0.62358200  0.27773287  0.45347811    -0.32500
H1299       H  0.63687371  0.30509180  0.46555099     0.28900
H1300       H  0.96361415  0.40697123  0.41904505     0.28900
H1301       H  0.97096104  0.35431186  0.45894198     0.19400
H1302       H  0.61427363  0.33715713  0.42912405     0.19500
C1303       C  0.04145538  0.14458888  0.45799465    -0.06400
C1304       C  0.57713748  0.14588705  0.45151277    -0.17500
C1305       C  0.58498265  0.12353251  0.43816379     0.10800
C1306       C  0.05530555  0.09602346  0.43150963    -0.06300
C1307       C  0.01568812  0.08712915  0.44025220    -0.17500
C1308       C  0.00877159  0.11034395  0.45347539     0.10900
S1309       S  0.64387013  0.12405564  0.43091277    -0.32500
S1310       S  0.95891653  0.09274187  0.46439985    -0.32500
H1311       H  0.98204036  0.09764039  0.47787577     0.28900
H1312       H  0.63149959  0.11819795  0.41617920     0.28900
H1313       H  0.60594319  0.16480148  0.45649849     0.19400
H1314       H  0.99074376  0.06046914  0.43696854     0.19500
C1315       C  0.97766328  0.36799226  0.55063123    -0.06400
C1316       C  0.51899147  0.37135054  0.54471241    -0.17500
C1317       C  0.52800507  0.35051506  0.53120833     0.10800
C1318       C  0.99578595  0.32265465  0.52387658    -0.06300
C1319       C  0.95374041  0.31429283  0.53160797    -0.17500
C1320       C  0.94403145  0.33694729  0.54479279     0.10900
S1321       S  0.58458681  0.36188929  0.52304936    -0.32500
S1322       S  0.88800147  0.32486503  0.55335728    -0.32500
H1323       H  0.88603209  0.36338215  0.56270480     0.28900
H1324       H  0.56709240  0.36707733  0.50879177     0.28900
H1325       H  0.54602710  0.39267382  0.54973321     0.19400
H1326       H  0.92819751  0.28963090  0.52739622     0.19500
C1327       C  0.98414783  0.09837166  0.55070419    -0.06400
C1328       C  0.51793254  0.09039121  0.54254541    -0.17500
C1329       C  0.52614770  0.11420246  0.52940740     0.10800
C1330       C  0.00015205  0.14670536  0.52424392    -0.06300
C1331       C  0.96001627  0.15517385  0.53277874    -0.17500
C1332       C  0.95150929  0.13122641  0.54585306     0.10900
S1333       S  0.57781927  0.10090319  0.51875891    -0.32500
S1334       S  0.89821385  0.14377638  0.55568086    -0.32500
H1335       H  0.89088541  0.09911928  0.56147233     0.28900
H1336       H  0.59716269  0.06883753  0.52854549     0.28900
H1337       H  0.54277386  0.06494912  0.54627903     0.19400
H1338       H  0.93502947  0.18082930  0.52925787     0.19500
C1339       C  0.46213748  0.36674887  0.62881071    -0.06400
C1340       C  0.50179712  0.37332808  0.63760763    -0.17500
C1341       C  0.50560438  0.35165391  0.65119204     0.10800
C1342       C  0.46936974  0.32149297  0.65607797    -0.06300
C1343       C  0.93167511  0.31804079  0.64755610    -0.17500
C1344       C  0.92728752  0.33818129  0.63373319     0.10900
S1345       S  0.55620110  0.36635966  0.66204785    -0.32500
S1346       S  0.87194572  0.33157372  0.62449177    -0.32500
H1347       H  0.88990239  0.33593746  0.61023377     0.28900
H1348       H  0.53145181  0.36753765  0.67538886     0.28900
H1349       H  0.52904057  0.39754067  0.63414770     0.19400
H1350       H  0.90252097  0.29775975  0.65184105     0.19500
C1351       C  0.47094409  0.14722611  0.65491199    -0.06400
C1352       C  0.50811749  0.11811526  0.65111822    -0.17500
C1353       C  0.50812627  0.09349767  0.63796435     0.10800
C1354       C  0.47030701  0.09817420  0.62820179    -0.06300
C1355       C  0.93642099  0.13246758  0.63179178    -0.17500
C1356       C  0.93610575  0.15614194  0.64513582     0.10900
S1357       S  0.55632458  0.05491229  0.63458341    -0.32500
S1358       S  0.88730581  0.19362296  0.64851650    -0.32500
H1359       H  0.87012937  0.16592120  0.66007375     0.28900
H1360       H  0.55321892  0.05507926  0.61925656     0.28900
H1361       H  0.53721979  0.11402192  0.65855069     0.19400
H1362       H  0.90694120  0.13569965  0.62445528     0.19500
C1363       C  0.48669631  0.34640401  0.71580973    -0.06400
C1364       C  0.52975922  0.36182026  0.72144335    -0.17500
C1365       C  0.53662720  0.40653633  0.72749718     0.10800
C1366       C  0.49739802  0.43723025  0.72963028    -0.06300
C1367       C  0.95738464  0.42617226  0.72281615    -0.17500
C1368       C  0.95220607  0.38206943  0.71621638     0.10900
S1369       S  0.59825344  0.42024881  0.72984472    -0.32500
S1370       S  0.89596456  0.36893482  0.70836193    -0.32500
H1371       H  0.88683828  0.33274034  0.71834565     0.28900
H1372       H  0.59666822  0.46818703  0.72875719     0.28900
H1373       H  0.55963963  0.33915007  0.72052341     0.19400
H1374       H  0.92693764  0.44781311  0.72322649     0.19500
C1375       C  0.48888360  0.11585515  0.71434627    -0.06400
C1376       C  0.94964408  0.10060235  0.72130450    -0.17500
C1377       C  0.94760799  0.05524993  0.72729341     0.10800
C1378       C  0.49008227  0.02614736  0.72882742    -0.06300
C1379       C  0.52774178  0.04225141  0.71999959    -0.17500
C1380       C  0.52797456  0.08601562  0.71304295     0.10900
S1381       S  0.88941057  0.03035684  0.72958179    -0.32500
S1382       S  0.57950856  0.10070369  0.70251193    -0.32500
H1383       H  0.55389632  0.11163893  0.68989272     0.28900
H1384       H  0.86429387  0.07202086  0.72955013     0.28900
H1385       H  0.91819757  0.12113324  0.72113977     0.19400
H1386       H  0.55871401  0.02188615  0.71901495     0.19500
C1387       C  0.86519137  0.98693341  0.76599831    -0.06400
C1388       C  0.87914058  0.44502561  0.76145893    -0.17500
C1389       C  0.92399020  0.44056032  0.75487558     0.10800
C1390       C  0.95403999  0.98044508  0.75062813    -0.06300
C1391       C  0.94143074  0.02047270  0.75865900    -0.17500
C1392       C  0.89824548  0.02422398  0.76611975     0.10900
S1393       S  0.94671845  0.38237677  0.75329450    -0.32500
S1394       S  0.88843550  0.07766589  0.77580258    -0.32500
H1395       H  0.87322615  0.05527169  0.78867606     0.28900
H1396       H  0.90640285  0.35790400  0.75793004     0.28900
H1397       H  0.85703633  0.41455025  0.76280968     0.19400
H1398       H  0.96405046  0.05069880  0.75833913     0.19500
C1399       C  0.54284453  0.98882408  0.74954650    -0.06400
C1400       C  0.55389677  0.44942718  0.75836456    -0.17500
C1401       C  0.59853458  0.44714422  0.76496045     0.10800
C1402       C  0.63355347  0.98613940  0.76378280    -0.06300
C1403       C  0.61621628  0.02723931  0.75761795    -0.17500
C1404       C  0.57109019  0.02995954  0.75134826     0.10900
S1405       S  0.61228162  0.39368006  0.77402684    -0.32500
S1406       S  0.54836465  0.08788888  0.74925011    -0.32500
H1407       H  0.59185450  0.11057862  0.74725066     0.28900
H1408       H  0.65194190  0.38597679  0.76519513     0.28900
H1409       H  0.53172413  0.41882225  0.75879337     0.19400
H1410       H  0.63713232  0.05866790  0.75852508     0.19500
C1411       C  0.82828721  0.00767258  0.82616796    -0.06400
C1412       C  0.85491999  0.47740150  0.83094247    -0.17500
C1413       C  0.87962337  0.48134074  0.84406031     0.10800
C1414       C  0.87693260  0.01248085  0.85300792    -0.06300
C1415       C  0.84900421  0.04926855  0.84852951    -0.17500
C1416       C  0.82424434  0.04715402  0.83539265     0.10900
S1417       S  0.91795864  0.43457986  0.84894216    -0.32500
S1418       S  0.78707858  0.09546455  0.83147091    -0.32500
H1419       H  0.74925893  0.06644982  0.82779575     0.28900
H1420       H  0.91657869  0.44225710  0.86411082     0.28900
H1421       H  0.85904770  0.44641960  0.82436783     0.19400
H1422       H  0.84755088  0.08043707  0.85514723     0.19500
C1423       C  0.61337976  0.01745270  0.85184183    -0.06400
C1424       C  0.61039432  0.47758151  0.84542719    -0.17500
C1425       C  0.62922309  0.47138080  0.83141237     0.10800
C1426       C  0.65384000  0.00661958  0.82373629    -0.06300
C1427       C  0.65404229  0.05001364  0.83081773    -0.17500
C1428       C  0.63488871  0.05565205  0.84477487     0.10900
S1429       S  0.62038941  0.41528131  0.82308060    -0.32500
S1430       S  0.63569948  0.11335677  0.85244601    -0.32500
H1431       H  0.63325679  0.09999902  0.86717698     0.28900
H1432       H  0.61044014  0.43338824  0.80915911     0.28900
H1433       H  0.59198907  0.44890447  0.85066570     0.19400
H1434       H  0.66987277  0.08003499  0.82556335     0.19500
C1435       C  0.86024947  0.99869696  0.21733934    -0.06400
C1436       C  0.85947957  0.99842360  0.23257978    -0.17500
C1437       C  0.90092655  0.99510836  0.24092056     0.10800
C1438       C  0.94635228  0.99221419  0.23397028    -0.06300
C1439       C  0.94091108  0.49508791  0.21921353    -0.17500
C1440       C  0.89894179  0.49604263  0.21111889     0.10900
S1441       S  0.89326154  0.99139779  0.26046704    -0.32500
S1442       S  0.90387877  0.49835295  0.19151310    -0.32500
H1443       H  0.86879492  0.46462384  0.18914469     0.28900
H1444       H  0.84484462  0.98177621  0.26070111     0.28900
H1445       H  0.82574371  0.99994080  0.23800281     0.19400
H1446       H  0.97341168  0.49762415  0.21319272     0.19500
C1447       C  0.54192313  0.98874260  0.23355494    -0.06400
C1448       C  0.57874618  0.02031098  0.23770233    -0.17500
C1449       C  0.62318310  0.02200717  0.23103053     0.10800
C1450       C  0.63425042  0.99136753  0.21960468    -0.06300
C1451       C  0.59533291  0.45838026  0.21666371    -0.17500
C1452       C  0.55020858  0.45640627  0.22331446     0.10900
S1453       S  0.66539312  0.06280520  0.23837043    -0.32500
S1454       S  0.51161078  0.40950027  0.21782642    -0.32500
H1455       H  0.53982614  0.39073080  0.20671643     0.28900
H1456       H  0.70401841  0.03337834  0.23668254     0.28900
H1457       H  0.57515956  0.04329647  0.24691542     0.19400
H1458       H  0.60399548  0.43372540  0.20818094     0.19500
C1459       C  0.83522553  0.03782691  0.95727613    -0.06400
C1460       C  0.82935844  0.07416255  0.94720094    -0.17500
C1461       C  0.85276680  0.07484079  0.93371879     0.10800
C1462       C  0.88266573  0.03789286  0.93004255    -0.06300
C1463       C  0.88457052  0.50589266  0.94005436    -0.17500
C1464       C  0.86146421  0.50424240  0.95362418     0.10900
S1465       S  0.84425908  0.12515958  0.92228834    -0.32500
S1466       S  0.87654047  0.45958571  0.96659335    -0.32500
H1467       H  0.90674612  0.43470302  0.95736174     0.28900
H1468       H  0.86597392  0.10957070  0.90948425     0.28900
H1469       H  0.80586232  0.10229073  0.94978201     0.19400
H1470       H  0.91099448  0.48047355  0.93748607     0.19500
C1471       C  0.61277968  0.04040980  0.92926224    -0.06400
C1472       C  0.60564338  0.50127943  0.93878950    -0.17500
C1473       C  0.62637267  0.49960172  0.95266709     0.10800
C1474       C  0.65827891  0.03942923  0.95667048    -0.06300
C1475       C  0.66851265  0.07423219  0.94628430    -0.17500
C1476       C  0.64588162  0.07540955  0.93273568     0.10900
S1477       S  0.61338941  0.45085578  0.96450870    -0.32500
S1478       S  0.66034038  0.12283771  0.92057699    -0.32500
H1479       H  0.61707956  0.12481641  0.91338820     0.28900
H1480       H  0.58710730  0.42470473  0.95439756     0.28900
H1481       H  0.58245279  0.47340904  0.93531642     0.19400
H1482       H  0.69446326  0.10085875  0.94872963     0.19500
C1483       C  0.82756595  0.02012689  0.15628973    -0.06400
C1484       C  0.84978778  0.47887918  0.15225436    -0.17500
C1485       C  0.87297280  0.47998715  0.13875775     0.10800
C1486       C  0.87467703  0.02442045  0.12911345    -0.06300
C1487       C  0.84692580  0.06131532  0.13372585    -0.17500
C1488       C  0.82359582  0.05981298  0.14719263     0.10900
S1489       S  0.90777399  0.43052508  0.13380411    -0.32500
S1490       S  0.78901016  0.10946781  0.15188204    -0.32500
H1491       H  0.81821840  0.12176575  0.16364998     0.28900
H1492       H  0.90489548  0.43700872  0.11860511     0.28900
H1493       H  0.85257644  0.44811344  0.15898610     0.19400
H1494       H  0.84546849  0.09250122  0.12712823     0.19500
C1495       C  0.65333284  0.01523130  0.15833762    -0.06400
C1496       C  0.66097007  0.05476045  0.14955614    -0.17500
C1497       C  0.63838530  0.06023524  0.13612402     0.10800
C1498       C  0.60791942  0.02498881  0.13101093    -0.06300
C1499       C  0.59602459  0.48457037  0.14102746    -0.17500
C1500       C  0.61733714  0.48032229  0.15469378     0.10900
S1501       S  0.64931175  0.11338210  0.12619948    -0.32500
S1502       S  0.60000010  0.43149692  0.16588437    -0.32500
H1503       H  0.60177488  0.45606347  0.17917509     0.28900
H1504       H  0.60407407  0.11769122  0.12042596     0.28900
H1505       H  0.68489917  0.08182723  0.15316619     0.19400
H1506       H  0.57060373  0.45850867  0.13763586     0.19500
C1507       C  0.83283229  0.03828605  0.02509927    -0.06400
C1508       C  0.82328093  0.07264910  0.03559384    -0.17500
C1509       C  0.84730395  0.07458723  0.04886324     0.10800
C1510       C  0.87647240  0.54269664  0.05259759    -0.06300
C1511       C  0.88629262  0.50815180  0.04221963    -0.17500
C1512       C  0.86442239  0.50744726  0.02857850     0.10900
S1513       S  0.83366807  0.12135867  0.06121764    -0.32500
S1514       S  0.88292805  0.46410958  0.01562618    -0.32500
H1515       H  0.87886249  0.49281687  0.00326674     0.28900
H1516       H  0.87908434  0.12720773  0.06682473     0.28900
H1517       H  0.79684639  0.09840554  0.03343744     0.19400
H1518       H  0.91291986  0.48273675  0.04454572     0.19500
C1519       C  0.61180206  0.53812200  0.05449307    -0.06400
C1520       C  0.60387029  0.50158690  0.04459280    -0.17500
C1521       C  0.62406761  0.50175583  0.03061819     0.10800
C1522       C  0.65688268  0.03985597  0.02543691    -0.06300
C1523       C  0.66760414  0.07463132  0.03576309    -0.17500
C1524       C  0.64508632  0.07625269  0.04939629     0.10900
S1525       S  0.60496513  0.45726392  0.01806098    -0.32500
S1526       S  0.65970333  0.12396209  0.06137211    -0.32500
H1527       H  0.61517393  0.12836269  0.06778174     0.28900
H1528       H  0.60443888  0.48670959  0.00578760     0.28900
H1529       H  0.57871259  0.47447353  0.04738393     0.19400
H1530       H  0.69375795  0.10100762  0.03318761     0.19500
N1531       N  0.98940206  0.53115008  0.11378130    -0.36900
N1532       N  0.56630085  0.04216221  0.09212797    -0.57400
N1533       N  0.49428310  0.04727714  0.07000958    -0.36900
N1534       N  0.92217763  0.04159637  0.09106172    -0.57400
C1535       C  0.52632008  0.54259859  0.12282111     0.26700
C1536       C  0.95075866  0.53850651  0.12201856     0.26700
C1537       C  0.53303768  0.05942203  0.06231759     0.26700
C1538       C  0.95971152  0.05820139  0.06183156     0.26700
C1539       C  0.58894886  0.52497836  0.10496716     0.35300
C1540       C  0.59346985  0.03602463  0.08016464     0.35300
C1541       C  0.89005749  0.52582448  0.10311786     0.35300
C1542       C  0.89675355  0.03402048  0.07888690     0.35300
C1543       C  0.51147327  0.55903749  0.13630605    -0.22100
C1544       C  0.96374380  0.55235711  0.13595968    -0.22100
C1545       C  0.52022135  0.08051396  0.04932490    -0.22100
C1546       C  0.97487125  0.08001578  0.04913058    -0.22100
C1547       C  0.63258354  0.50922601  0.10068646    -0.23200
C1548       C  0.63727094  0.02069899  0.08429964    -0.23200
C1549       C  0.84622317  0.51213322  0.09814929    -0.23200
C1550       C  0.85249556  0.01736232  0.08255262    -0.23200
C1551       C  0.57284963  0.53043279  0.11947897    -0.18600
C1552       C  0.90431983  0.52793731  0.11784224    -0.18600
C1553       C  0.91295000  0.04455626  0.06468155    -0.18500
C1554       C  0.57917388  0.04621178  0.06573248    -0.18500
H1555       H  0.53289885  0.56787670  0.14565552     0.14400
H1556       H  0.94102727  0.55985185  0.14514613     0.14400
H1557       H  0.54311504  0.09289751  0.04066135     0.14400
H1558       H  0.95356948  0.09228032  0.04020629     0.14400
H1559       H  0.66043587  0.49738734  0.10769147     0.12600
H1560       H  0.66679531  0.01347694  0.07722796     0.12600
H1561       H  0.81671893  0.50012599  0.10465731     0.12600
H1562       H  0.82413125  0.00876312  0.07518748     0.12600
H1563       H  0.99012029  0.51468845  0.10368065     0.25900
H1564       H  0.49336575  0.02508761  0.07895762     0.25900
O1565       O  0.79123796  0.99933978  0.97616643    -0.74700
O1566       O  0.69700085  0.00022941  0.00614935    -0.74700
O1567       O  0.69783815  0.00029838  0.97601342    -0.74800
O1568       O  0.79031338  0.99925322  0.00618750    -0.74800
O1569       O  0.78865222  0.57820041  0.00629143    -0.74700
O1570       O  0.69403880  0.57589001  0.97693909    -0.74700
O1571       O  0.69556116  0.57661371  0.00701845    -0.74700
O1572       O  0.78715824  0.57715473  0.97628007    -0.74800
Ni1573     Ni  0.74397737  0.99702191  0.99112106     1.25400
Ni1574     Ni  0.74130323  0.57968008  0.99162583     1.25400
C1575       C  0.80094552  0.53854566  0.97090152     0.87500
C1576       C  0.68228362  0.53786719  0.01264681     0.87400
C1577       C  0.68116309  0.53706707  0.97133098     0.87500
C1578       C  0.80230521  0.53995505  0.01185579     0.87600
O1579       O  0.69657519  0.97045175  0.17565042    -0.74700
O1580       O  0.79631634  0.96293955  0.20390684    -0.74700
O1581       O  0.69742630  0.95936829  0.20507723    -0.74800
O1582       O  0.78953741  0.97378944  0.17450252    -0.74800
O1583       O  0.78489135  0.54809798  0.17836260    -0.74700
O1584       O  0.69255773  0.53558652  0.20891128    -0.74700
O1585       O  0.79069571  0.53765327  0.20775704    -0.74700
O1586       O  0.69187234  0.54666796  0.17951346    -0.74800
Ni1587     Ni  0.74508682  0.96382605  0.18994088     1.25400
Ni1588     Ni  0.74004019  0.54460215  0.19397260     1.25400
C1589       C  0.67794629  0.51009043  0.17276747     0.87500
C1590       C  0.80956840  0.49819158  0.21011636     0.87400
C1591       C  0.67427509  0.49551963  0.21167034     0.87500
C1592       C  0.79719413  0.51208459  0.17118083     0.87600
N1593       N  0.49498152  0.54587989  0.91260050    -0.36900
N1594       N  0.56742643  0.53763914  0.89079301    -0.57400
N1595       N  0.49389914  0.53039561  0.86934990    -0.36900
N1596       N  0.91947903  0.54205432  0.89085112    -0.57400
C1597       C  0.53352229  0.55863919  0.92018367     0.26700
C1598       C  0.95469961  0.55996494  0.92022060     0.26700
C1599       C  0.53183587  0.53883559  0.86083556     0.26700
C1600       C  0.95410452  0.54542673  0.86061458     0.26700
C1601       C  0.59362649  0.53093116  0.90281599     0.35300
C1602       C  0.59321923  0.52400376  0.87921430     0.35300
C1603       C  0.89314921  0.53484225  0.90294615     0.35300
C1604       C  0.89309037  0.52904810  0.87934196     0.35300
C1605       C  0.52040334  0.58186023  0.93281050    -0.22100
C1606       C  0.96844771  0.58244281  0.93292440    -0.22100
C1607       C  0.51762135  0.55300229  0.84706189    -0.22100
C1608       C  0.96714384  0.56031482  0.84674749    -0.22100
C1609       C  0.63696895  0.51358986  0.89887937    -0.23200
C1610       C  0.63676788  0.50933675  0.88382419    -0.23200
C1611       C  0.84913192  0.51823899  0.89912372    -0.23200
C1612       C  0.84908653  0.51455318  0.88407753    -0.23200
C1613       C  0.57942969  0.54402345  0.91702108    -0.18600
C1614       C  0.90834099  0.54562961  0.91721098    -0.18600
C1615       C  0.90816726  0.53220796  0.86466396    -0.18500
C1616       C  0.57840813  0.52843100  0.86459408    -0.18500
H1617       H  0.54301194  0.59520496  0.94133328     0.14400
H1618       H  0.94620395  0.59483212  0.94167265     0.14400
H1619       H  0.53932613  0.56107282  0.83765676     0.14400
H1620       H  0.94453537  0.56692599  0.83753614     0.14400
H1621       H  0.66587945  0.50585357  0.90604981     0.12600
H1622       H  0.66542979  0.49751218  0.87705165     0.12600
H1623       H  0.82013906  0.51006457  0.90638325     0.12600
H1624       H  0.82005791  0.50285731  0.87739965     0.12600
H1625       H  0.49415094  0.52223091  0.90401828     0.25900
H1626       H  0.49383609  0.51312405  0.87932768     0.25900
O1627       O  0.79470976  0.52949657  0.77571952    -0.74700
O1628       O  0.69399166  0.54002179  0.80365568    -0.74700
O1629       O  0.78733641  0.54209676  0.80486582    -0.74800
O1630       O  0.69622348  0.52775193  0.77442791    -0.74800
O1631       O  0.69849954  0.95130285  0.77711056    -0.74700
O1632       O  0.79043467  0.96239251  0.80765613    -0.74700
O1633       O  0.69744693  0.96144617  0.80646931    -0.74700
O1634       O  0.79754178  0.95210728  0.77823801    -0.74800
Ni1635     Ni  0.74311121  0.53738412  0.78929919     1.25400
Ni1636     Ni  0.74604289  0.95399040  0.79218320     1.25400
C1637       C  0.81476035  0.49018823  0.77395953     0.87500
C1638       C  0.68003912  0.50383255  0.81066968     0.87400
C1639       C  0.79962526  0.50664662  0.81226547     0.87500
C1640       C  0.67686673  0.48788451  0.77221096     0.87600
O1641       O  0.52691909  0.78150912  0.70347125    -0.74700
O1642       O  0.51793307  0.68625861  0.67407271    -0.74700
O1643       O  0.51963023  0.77856040  0.67407432    -0.74800
O1644       O  0.52573460  0.68343911  0.70348405    -0.74800
O1645       O  0.94464914  0.68381093  0.70536433    -0.74700
O1646       O  0.93486778  0.78042518  0.67649829    -0.74700
O1647       O  0.93405980  0.68793116  0.67606833    -0.74700
O1648       O  0.94514008  0.78203562  0.70576588    -0.74800
Ni1649     Ni  0.52537306  0.73242645  0.68898090     1.25400
Ni1650     Ni  0.93704365  0.73348160  0.69129122     1.25400
C1651       C  0.48923673  0.80070285  0.70813223     0.87500
C1652       C  0.47729681  0.67366443  0.66954366     0.87400
C1653       C  0.47966268  0.79244187  0.66969764     0.87500
C1654       C  0.48776367  0.66348017  0.70791517     0.87600
N1655       N  0.96097564  0.48243952  0.56793730    -0.36900
N1656       N  0.95473109  0.55428743  0.58992110    -0.57400
N1657       N  0.95529758  0.48073909  0.61133800    -0.36900
N1658       N  0.96079137  0.91196995  0.59061277    -0.57400
C1659       C  0.95089263  0.51997732  0.55977301     0.26700
C1660       C  0.95917332  0.94524805  0.56040248     0.26700
C1661       C  0.94382096  0.51773017  0.61962671     0.26700
C1662       C  0.94687458  0.94934863  0.62002314     0.26700
C1663       C  0.96668422  0.58075216  0.57828133     0.35300
C1664       C  0.96397717  0.57985489  0.60195711     0.35300
C1665       C  0.97254730  0.88495754  0.57915611     0.35300
C1666       C  0.96694484  0.88639220  0.60278781     0.35300
C1667       C  0.93581561  0.50598025  0.54605238    -0.22100
C1668       C  0.94411929  0.95835046  0.54662927    -0.22100
C1669       C  0.42948808  0.50710882  0.63297703    -0.22100
C1670       C  0.43440597  0.95786570  0.63307809    -0.22100
C1671       C  0.98242526  0.62398647  0.58289282    -0.23200
C1672       C  0.98067780  0.62342305  0.59797352    -0.23200
C1673       C  0.98500195  0.84128149  0.58400776    -0.23200
C1674       C  0.98139085  0.84218108  0.59906858    -0.23200
C1675       C  0.96199155  0.56617584  0.56362438    -0.22600
C1676       C  0.96960122  0.89927872  0.56443625    -0.18600
C1677       C  0.95779590  0.90268511  0.61706008    -0.18500
C1678       C  0.95613279  0.56413969  0.61639150    -0.18500
H1679       H  0.92672040  0.52790790  0.53691726     0.14400
H1680       H  0.93474477  0.93585556  0.53759904     0.14400
H1681       H  0.41898898  0.52932783  0.64192300     0.14400
H1682       H  0.42400170  0.93603377  0.64218639     0.14400
H1683       H  0.99402215  0.65272888  0.57611602     0.12600
H1684       H  0.99074073  0.65161529  0.60516753     0.12600
H1685       H  0.99518081  0.81189706  0.57739748     0.12600
H1686       H  0.98835918  0.81367180  0.60640990     0.12600
H1687       H  0.97972492  0.48296283  0.57764406     0.25900
H1688       H  0.97659496  0.48180089  0.60209501     0.25900
O1689       O  0.96914009  0.78204149  0.50408745    -0.74700
O1690       O  0.98518659  0.68839463  0.47498687    -0.74700
O1691       O  0.96686224  0.68977715  0.50445125    -0.74800
O1692       O  0.98791628  0.78073021  0.47450584    -0.74800
O1693       O  0.56661525  0.78020136  0.47841703    -0.74700
O1694       O  0.54983161  0.68878516  0.50821527    -0.74700
O1695       O  0.56757279  0.68773501  0.47870820    -0.74700
O1696       O  0.54827418  0.78097932  0.50791864    -0.74800
Ni1697     Ni  0.97457068  0.73533530  0.48934319     1.25400
Ni1698     Ni  0.56078109  0.73454173  0.49346878     1.25400
C1699       C  0.00437118  0.79500379  0.51174906     0.87500
C1700       C  0.02627466  0.67377197  0.47198650     0.87400
C1701       C  0.00151487  0.67602400  0.51210591     0.87500
C1702       C  0.03004703  0.79256578  0.47111832     0.87600
C1703       C  0.49429292  0.48204505  0.73994543    -0.02700
N1704       N  0.05112360  0.48767315  0.37035583    -0.36900
N1705       N  0.06131163  0.91000080  0.39164340    -0.57400
N1706       N  0.05743343  0.48721641  0.41375726    -0.36900
N1707       N  0.05317828  0.55991814  0.39229878    -0.57400
C1708       C  0.06590942  0.94709316  0.36169965     0.26700
C1709       C  0.05848320  0.52601758  0.36214046     0.26700
C1710       C  0.07288382  0.94351429  0.42156287     0.26700
C1711       C  0.06841120  0.52488685  0.42189774     0.26700
C1712       C  0.05011300  0.88460266  0.37974863     0.35300
C1713       C  0.05107858  0.88351689  0.40342566     0.35300
C1714       C  0.04033666  0.58571952  0.38073177     0.35300
C1715       C  0.04441440  0.58533039  0.40437248     0.35300
C1716       C  0.08017366  0.96254699  0.34799358    -0.22100
C1717       C  0.07520320  0.51349552  0.34845358    -0.22100
C1718       C  0.09200310  0.95652902  0.43487088    -0.22100
C1719       C  0.08782869  0.51100571  0.43503744    -0.22100
C1720       C  0.03392458  0.84102194  0.38393282    -0.23200
C1721       C  0.03431220  0.84041500  0.39902653    -0.23200
C1722       C  0.02439008  0.62847998  0.38541295    -0.23200
C1723       C  0.02691253  0.62820449  0.40048278    -0.23200
C1724       C  0.05667681  0.90019347  0.36525256    -0.18600
C1725       C  0.04519878  0.57130435  0.36606597    -0.18600
C1726       C  0.05472601  0.57059398  0.41869528    -0.18500
C1727       C  0.05833841  0.89800685  0.41798892    -0.18500
H1728       H  0.08984843  0.94171612  0.33863465     0.14400
H1729       H  0.08323123  0.53602691  0.33929527     0.14400
H1730       H  0.10190361  0.93406588  0.44378738     0.14400
H1731       H  0.09878715  0.53282961  0.44405374     0.14400
H1732       H  0.02294980  0.81282559  0.37686650     0.12600
H1733       H  0.02370784  0.81165495  0.40594675     0.12600
H1734       H  0.01242120  0.65680364  0.37868445     0.12600
H1735       H  0.01747280  0.65634105  0.40771778     0.12600
H1736       H  0.03232712  0.48637447  0.38011150     0.25900
H1737       H  0.03593611  0.48687824  0.40461967     0.25900
O1738       O  0.56586804  0.78413621  0.30511259    -0.74700
O1739       O  0.54824621  0.68621936  0.27677604    -0.74700
O1740       O  0.55157928  0.78404443  0.27596961    -0.74800
O1741       O  0.56363252  0.69156032  0.30598725    -0.74800
O1742       O  0.98498588  0.69179213  0.30941691    -0.74700
O1743       O  0.97406181  0.78445884  0.27927891    -0.74700
O1744       O  0.96960875  0.68713277  0.28020209    -0.74700
O1745       O  0.98837388  0.78386247  0.30844799    -0.74800
Ni1746     Ni  0.55996388  0.73633838  0.29057744     1.25400
Ni1747     Ni  0.97645290  0.73683395  0.29422713     1.25400
C1748       C  0.02988596  0.79666114  0.31194111     0.87500
C1749       C  0.50702436  0.66864712  0.27497912     0.87400
C1750       C  0.51177050  0.80323489  0.27397261     0.87500
C1751       C  0.02584301  0.67797073  0.31305547     0.87600
C1752       C  0.48908515  0.48681805  0.24370633    -0.02700
C1753       C  0.49564205  0.93651435  0.25077436    -0.06400
C1754       C  0.53648765  0.92625273  0.25887908    -0.17500
C1755       C  0.54250086  0.88424283  0.26651271     0.10800
C1756       C  0.50859570  0.84814234  0.26558483    -0.06300
C1757       C  0.96951952  0.85558560  0.25657124    -0.17500
C1758       C  0.96288661  0.89767791  0.24894716     0.10900
S1759       S  0.59257468  0.88076357  0.27831042    -0.32500
S1760       S  0.91653512  0.89366507  0.23554271    -0.32500
H1761       H  0.88678430  0.86375282  0.24358274     0.28900
H1762       H  0.56600257  0.86509055  0.29035034     0.28900
H1763       H  0.56355216  0.95267934  0.25996007     0.19400
H1764       H  0.94471466  0.82720351  0.25515050     0.19500
C1765       C  0.48901471  0.53239612  0.25377934    -0.06400
C1766       C  0.98513344  0.57355351  0.24544322    -0.17500
C1767       C  0.99028994  0.61786402  0.25171701     0.10800
C1768       C  0.50069840  0.62321138  0.26722901    -0.06300
C1769       C  0.50313421  0.58214355  0.27544723    -0.17500
C1770       C  0.49673831  0.53740746  0.26927588     0.10900
S1771       S  0.98564973  0.66727061  0.23966706    -0.32500
S1772       S  0.49948613  0.49153238  0.28266643    -0.32500
H1773       H  0.46339742  0.46354753  0.27716818     0.28900
H1774       H  0.00327681  0.70175631  0.24904400     0.28900
H1775       H  0.98066441  0.57232985  0.23370523     0.19400
H1776       H  0.50975589  0.58510018  0.28707859     0.19500
C1777       C  0.04935663  0.86812620  0.35279111    -0.06400
C1778       C  0.00637145  0.87069238  0.34553559    -0.17500
C1779       C  0.00001076  0.85087126  0.33174527     0.10800
C1780       C  0.03694748  0.82589773  0.32514112    -0.06300
C1781       C  0.08023638  0.82390739  0.33241094    -0.17500
C1782       C  0.08674983  0.84439674  0.34613770     0.10900
S1783       S  0.94513142  0.86203282  0.32281810    -0.32500
S1784       S  0.14422897  0.84098838  0.35415953    -0.32500
H1785       H  0.63650525  0.85554282  0.36729602     0.28900
H1786       H  0.96557792  0.86923032  0.30894862     0.28900
H1787       H  0.97838180  0.89090750  0.35029763     0.19400
H1788       H  0.61164979  0.81473253  0.32625812     0.19500
C1789       C  0.03709322  0.60418372  0.35392897    -0.06400
C1790       C  0.57633592  0.63301052  0.34938393    -0.17500
C1791       C  0.57321078  0.65867031  0.33647699     0.10800
C1792       C  0.03150559  0.65155931  0.32690183    -0.06300
C1793       C  0.99276381  0.62660148  0.33250311    -0.17500
C1794       C  0.99521316  0.60273324  0.34579738     0.10900
S1795       S  0.62045568  0.69890050  0.33274249    -0.32500
S1796       S  0.94466275  0.56877855  0.35136075    -0.32500
H1797       H  0.95376529  0.56963043  0.36643276     0.28900
H1798       H  0.58982740  0.73478582  0.32928164     0.28900
H1799       H  0.60756826  0.63603035  0.35602672     0.19400
H1800       H  0.96041404  0.62498967  0.32636888     0.19500
C1801       C  0.03863978  0.81941165  0.45746777    -0.06400
C1802       C  0.00346792  0.84909686  0.45251728    -0.17500
C1803       C  0.00770769  0.87250094  0.43917693     0.10800
C1804       C  0.04796394  0.86627662  0.43039184    -0.06300
C1805       C  0.58470565  0.83872431  0.43509074    -0.17500
C1806       C  0.58052683  0.81447566  0.44828842     0.10900
S1807       S  0.96130496  0.91129214  0.43419452    -0.32500
S1808       S  0.62778311  0.77657666  0.45295803    -0.32500
H1809       H  0.64180515  0.80442561  0.46483888     0.28900
H1810       H  0.96736928  0.90733573  0.41899303     0.28900
H1811       H  0.97237209  0.85432155  0.45912689     0.19400
H1812       H  0.61661198  0.83604702  0.42869119     0.19500
C1813       C  0.03352487  0.64477957  0.45880031    -0.06400
C1814       C  0.58392907  0.64749897  0.45085353    -0.17500
C1815       C  0.59152475  0.62603728  0.43732507     0.10800
C1816       C  0.04666557  0.60171557  0.43134131    -0.06300
C1817       C  0.00436501  0.59612514  0.43902840    -0.17500
C1818       C  0.99748325  0.61690133  0.45266962     0.10900
S1819       S  0.64904824  0.63110494  0.42921886    -0.32500
S1820       S  0.94295859  0.60417915  0.46194916    -0.32500
H1821       H  0.96298807  0.60177344  0.47595156     0.28900
H1822       H  0.63426218  0.62702760  0.41464635     0.28900
H1823       H  0.61217133  0.66780409  0.45561171     0.19400
H1824       H  0.97721012  0.57357702  0.43462716     0.19500
C1825       C  0.98013878  0.86688235  0.55228614    -0.06400
C1826       C  0.52296752  0.87033230  0.54452284    -0.17500
C1827       C  0.53235827  0.84958492  0.53103071     0.10800
C1828       C  0.99625422  0.82237124  0.52520953    -0.06300
C1829       C  0.95554018  0.81260694  0.53347766    -0.17500
C1830       C  0.94688364  0.83469221  0.54684865     0.10900
S1831       S  0.58842525  0.86247902  0.52274576    -0.32500
S1832       S  0.89268179  0.82033751  0.55618041    -0.32500
H1833       H  0.88932946  0.86010031  0.56494869     0.28900
H1834       H  0.57037559  0.86732695  0.50854462     0.28900
H1835       H  0.54935561  0.89269545  0.54943353     0.19400
H1836       H  0.93019764  0.78730971  0.52952153     0.19500
C1837       C  0.97291842  0.59844841  0.55142168    -0.06400
C1838       C  0.52843638  0.59952318  0.54543562    -0.17500
C1839       C  0.53778470  0.62265736  0.53222414     0.10800
C1840       C  0.99241518  0.64759628  0.52534200    -0.06300
C1841       C  0.95064139  0.65498442  0.53320656    -0.17500
C1842       C  0.94032355  0.63050016  0.54605959     0.10900
S1843       S  0.59607507  0.61900077  0.52451973    -0.32500
S1844       S  0.88487377  0.64137582  0.55489558    -0.32500
H1845       H  0.87895283  0.59761902  0.56144293     0.28900
H1846       H  0.61838182  0.60404707  0.53733413     0.28900
H1847       H  0.55549776  0.57914221  0.55051871     0.19400
H1848       H  0.92565603  0.68006560  0.52930005     0.19500
C1849       C  0.47026711  0.86560114  0.62873640    -0.06400
C1850       C  0.51043650  0.87084744  0.63739002    -0.17500
C1851       C  0.51383674  0.84933498  0.65104679     0.10800
C1852       C  0.47660925  0.82068108  0.65616375    -0.06300
C1853       C  0.93039440  0.81583443  0.64727293    -0.17500
C1854       C  0.92682271  0.83933162  0.63394757     0.10900
S1855       S  0.56525282  0.86248396  0.66170733    -0.32500
S1856       S  0.87639399  0.82661344  0.62276104    -0.32500
H1857       H  0.87402010  0.86991111  0.61578874     0.28900
H1858       H  0.54086813  0.86546849  0.67508058     0.28900
H1859       H  0.53839960  0.89401369  0.63378784     0.19400
H1860       H  0.90375544  0.79024623  0.65012261     0.19500
C1861       C  0.47345436  0.64587700  0.65599816    -0.06400
C1862       C  0.51036518  0.61635261  0.65226653    -0.17500
C1863       C  0.51054104  0.59218432  0.63902505     0.10800
C1864       C  0.47308687  0.59758600  0.62917340    -0.06300
C1865       C  0.92496760  0.62410920  0.63315246    -0.17500
C1866       C  0.92590509  0.64890164  0.64631730     0.10900
S1867       S  0.55877152  0.55380519  0.63552954    -0.32500
S1868       S  0.87540653  0.68334940  0.65044486    -0.32500
H1869       H  0.86224419  0.65495308  0.66233166     0.28900
H1870       H  0.55647940  0.55563758  0.62020121     0.28900
H1871       H  0.53931582  0.61193927  0.65973721     0.19400
H1872       H  0.89398402  0.62518026  0.62636597     0.19500
C1873       C  0.49195623  0.84777309  0.71549319    -0.06400
C1874       C  0.53497609  0.86352524  0.72106684    -0.17500
C1875       C  0.54151467  0.90851271  0.72691398     0.10800
C1876       C  0.50188878  0.93864929  0.72902327    -0.06300
C1877       C  0.95837910  0.92652377  0.72141144    -0.17500
C1878       C  0.95186750  0.88192865  0.71523811     0.10900
S1879       S  0.60302371  0.92333542  0.72900171    -0.32500
S1880       S  0.89548803  0.86974259  0.70733372    -0.32500
H1881       H  0.88491056  0.83482869  0.71763447     0.28900
H1882       H  0.60058848  0.97130553  0.72845908     0.28900
H1883       H  0.56497526  0.84097245  0.72025786     0.19400
H1884       H  0.92873644  0.94923481  0.72149900     0.19500
C1885       C  0.48881068  0.61574993  0.71502897    -0.06400
C1886       C  0.94618570  0.59940180  0.72178232    -0.17500
C1887       C  0.94470437  0.55459857  0.72813530     0.10800
C1888       C  0.48729424  0.52533423  0.72920014    -0.06300
C1889       C  0.52516705  0.54045702  0.72028037    -0.17500
C1890       C  0.52673472  0.58453602  0.71348846     0.10900
S1891       S  0.88674388  0.52945515  0.73063481    -0.32500
S1892       S  0.57850572  0.59795336  0.70291153    -0.32500
H1893       H  0.55304582  0.61056671  0.69042704     0.28900
H1894       H  0.86247329  0.57142432  0.73202532     0.28900
H1895       H  0.91432552  0.61926560  0.72131303     0.19400
H1896       H  0.55538150  0.51906936  0.71913977     0.19500
C1897       C  0.86288908  0.48760526  0.76689933    -0.06400
C1898       C  0.88064444  0.94466070  0.76012691    -0.17500
C1899       C  0.92514071  0.94017551  0.75335335     0.10800
C1900       C  0.95211184  0.48112190  0.75184668    -0.06300
C1901       C  0.93900445  0.52141254  0.75966896    -0.17500
C1902       C  0.89558470  0.52517880  0.76696974     0.10900
S1903       S  0.94652892  0.88166516  0.75164271    -0.32500
S1904       S  0.88485050  0.57913591  0.77626616    -0.32500
H1905       H  0.86916701  0.55740738  0.78919342     0.28900
H1906       H  0.90241702  0.86062914  0.74934590     0.28900
H1907       H  0.85859058  0.91411582  0.76147672     0.19400
H1908       H  0.96126051  0.55186673  0.75922552     0.19500
C1909       C  0.53951774  0.48791696  0.74994096    -0.06400
C1910       C  0.55749505  0.94995788  0.75773338    -0.17500
C1911       C  0.60209685  0.94752857  0.76428447     0.10800
C1912       C  0.63039094  0.48540326  0.76414397    -0.06300
C1913       C  0.61344025  0.52611620  0.75764573    -0.17500
C1914       C  0.56823133  0.52887978  0.75147574     0.10900
S1915       S  0.61636543  0.89325487  0.77278421    -0.32500
S1916       S  0.54605573  0.58701493  0.74937480    -0.32500
H1917       H  0.58954343  0.60857076  0.74635747     0.28900
H1918       H  0.65567180  0.88656373  0.76371011     0.28900
H1919       H  0.53566901  0.91912433  0.75794896     0.19400
H1920       H  0.63462097  0.55744689  0.75829311     0.19500
C1921       C  0.82579081  0.51311875  0.82610451    -0.06400
C1922       C  0.85528086  0.97026790  0.83099297    -0.17500
C1923       C  0.87929264  0.97216353  0.84427877     0.10800
C1924       C  0.87525751  0.52184744  0.85263092    -0.06300
C1925       C  0.84545712  0.55698531  0.84808656    -0.17500
C1926       C  0.82047455  0.55303085  0.83506483     0.10900
S1927       S  0.91431808  0.92296847  0.84920783    -0.32500
S1928       S  0.78146038  0.59969569  0.83094144    -0.32500
H1929       H  0.74480416  0.56901114  0.82751398     0.28900
H1930       H  0.91206246  0.93014715  0.86439500     0.28900
H1931       H  0.85820003  0.93940519  0.82429736     0.19400
H1932       H  0.84259409  0.58830950  0.85458078     0.19500
C1933       C  0.61132323  0.52112087  0.85226703    -0.06400
C1934       C  0.61204281  0.97428366  0.84473970    -0.17500
C1935       C  0.63117817  0.96859958  0.83073695     0.10800
C1936       C  0.65099774  0.50935384  0.82410146    -0.06300
C1937       C  0.65073643  0.55314981  0.83093454    -0.17500
C1938       C  0.63218801  0.55916495  0.84495636     0.10900
S1939       S  0.62165905  0.91321467  0.82200301    -0.32500
S1940       S  0.63288722  0.61694519  0.85252889    -0.32500
H1941       H  0.63478124  0.60295117  0.86722064     0.28900
H1942       H  0.61272127  0.93236382  0.80814962     0.28900
H1943       H  0.59302335  0.94558129  0.84974990     0.19400
H1944       H  0.66587535  0.58311973  0.82546272     0.19500
C1945       C  0.85490955  0.49608891  0.21829239    -0.06400
C1946       C  0.85446826  0.49687025  0.23352702    -0.17500
C1947       C  0.89616424  0.49419150  0.24174947     0.10800
C1948       C  0.94122671  0.49040454  0.23461910    -0.06300
C1949       C  0.94648859  0.99764698  0.21857596    -0.17500
C1950       C  0.90466530  0.99902925  0.21032686     0.10900
S1951       S  0.88947363  0.49262379  0.26137650    -0.32500
S1952       S  0.91036144  0.00216642  0.19074753    -0.32500
H1953       H  0.87414216  0.96995757  0.18802244     0.28900
H1954       H  0.84034239  0.48915470  0.26206715     0.28900
H1955       H  0.82086943  0.49882272  0.23901234     0.19400
H1956       H  0.97925405  0.00021856  0.21268827     0.19500
C1957       C  0.53691113  0.48965713  0.23422183    -0.06400
C1958       C  0.57348889  0.52178764  0.23820336    -0.17500
C1959       C  0.61797359  0.52340699  0.23158672     0.10800
C1960       C  0.62950050  0.49185379  0.22046133    -0.06300
C1961       C  0.59982200  0.95834222  0.21564905    -0.17500
C1962       C  0.55497067  0.95590368  0.22248909     0.10900
S1963       S  0.65952606  0.56545569  0.23861306    -0.32500
S1964       S  0.51627211  0.90917806  0.21695198    -0.32500
H1965       H  0.54745254  0.88595666  0.20761162     0.28900
H1966       H  0.69849537  0.53626235  0.23738918     0.28900
H1967       H  0.56977973  0.54539160  0.24724649     0.19400
H1968       H  0.60801038  0.93448590  0.20689240     0.19500
C1969       C  0.82872425  0.53892551  0.95715518    -0.06400
C1970       C  0.81941946  0.57374216  0.94681567    -0.17500
C1971       C  0.84282653  0.57560289  0.93335060     0.10800
C1972       C  0.87602105  0.54140404  0.92992704    -0.06300
C1973       C  0.88859695  0.00155310  0.94006927    -0.17500
C1974       C  0.86568048  0.00124955  0.95367237     0.10900
S1975       S  0.82913791  0.62292068  0.92123835    -0.32500
S1976       S  0.87829250  0.95577915  0.96663289    -0.32500
H1977       H  0.91014627  0.93135351  0.95783756     0.28900
H1978       H  0.87275373  0.62607343  0.91413014     0.28900
H1979       H  0.79357608  0.59991814  0.94923827     0.19400
H1980       H  0.91291123  0.97425546  0.93738761     0.19500
C1981       C  0.61166682  0.53996245  0.92961114    -0.06400
C1982       C  0.60324374  0.00510545  0.93948062    -0.17500
C1983       C  0.62530148  0.00430567  0.95313973     0.10800
C1984       C  0.65445989  0.53739491  0.95743029    -0.06300
C1985       C  0.66078027  0.57582246  0.94807773    -0.17500
C1986       C  0.63972025  0.57759677  0.93433172     0.10900
S1987       S  0.60822031  0.96033365  0.96627550    -0.32500
S1988       S  0.64713640  0.63031474  0.92389333    -0.32500
H1989       H  0.64025615  0.61050276  0.91005113     0.28900
H1990       H  0.58245276  0.93218135  0.95656758     0.28900
H1991       H  0.57660739  0.97927754  0.93694867     0.19400
H1992       H  0.68262856  0.60489424  0.95144576     0.19500
C1993       C  0.82381111  0.51691270  0.15724778    -0.06400
C1994       C  0.85391037  0.98244911  0.15123992    -0.17500
C1995       C  0.87729347  0.98414516  0.13780720     0.10800
C1996       C  0.87015895  0.51982811  0.12984958    -0.06300
C1997       C  0.84290495  0.55711315  0.13446133    -0.17500
C1998       C  0.82024533  0.55641452  0.14805476     0.10900
S1999       S  0.91180261  0.93469554  0.13263291    -0.32500
S2000       S  0.78748328  0.60715530  0.15286519    -0.32500
H2001       H  0.81740572  0.61835213  0.16456772     0.28900
H2002       H  0.90929986  0.94191316  0.11746351     0.28900
H2003       H  0.85674006  0.95144650  0.15786078     0.19400
H2004       H  0.84161401  0.58815623  0.12779320     0.19500
C2005       C  0.64923186  0.51498632  0.15943918    -0.06400
C2006       C  0.65805119  0.55360059  0.15036721    -0.17500
C2007       C  0.63566319  0.55850464  0.13689645     0.10800
C2008       C  0.60446455  0.52344889  0.13208925    -0.06300
C2009       C  0.60073845  0.98507616  0.13962189    -0.17500
C2010       C  0.62248963  0.98006110  0.15323569     0.10900
S2011       S  0.64781672  0.61058415  0.12653084    -0.32500
S2012       S  0.60704459  0.92947516  0.16389375    -0.32500
H2013       H  0.60732223  0.95283003  0.17740849     0.28900
H2014       H  0.60308011  0.61490176  0.12039460     0.28900
H2015       H  0.68276382  0.58026495  0.15376544     0.19400
H2016       H  0.57601541  0.95865597  0.13601667     0.19500
C2017       C  0.83078724  0.54132513  0.02529034    -0.06400
C2018       C  0.82044277  0.57544808  0.03579604    -0.17500
C2019       C  0.84321613  0.57685109  0.04929783     0.10800
C2020       C  0.88112451  0.04079470  0.05195086    -0.06300
C2021       C  0.88962259  0.00551018  0.04171279    -0.17500
C2022       C  0.86630808  0.00411448  0.02830416     0.10900
S2023       S  0.82853184  0.62327695  0.06167665    -0.32500
S2024       S  0.88281627  0.95949595  0.01552909    -0.32500
H2025       H  0.88002710  0.98804275  0.00309514     0.28900
H2026       H  0.87237739  0.62712783  0.06849083     0.28900
H2027       H  0.79409782  0.60118613  0.03351684     0.19400
H2028       H  0.91621004  0.97998139  0.04395593     0.19500
C2029       C  0.61184538  0.04153021  0.05310194    -0.06400
C2030       C  0.60233554  0.00583017  0.04302117    -0.17500
C2031       C  0.62370770  0.00502159  0.02921658     0.10800
C2032       C  0.65528901  0.53798608  0.02656669    -0.06300
C2033       C  0.66440423  0.57378736  0.03667724    -0.17500
C2034       C  0.64250314  0.57481627  0.05042064     0.10900
S2035       S  0.60462604  0.96052009  0.01665179    -0.32500
S2036       S  0.65331479  0.62559035  0.06157872    -0.32500
H2037       H  0.62702264  0.61321442  0.07396454     0.28900
H2038       H  0.60662276  0.98920554  0.00421115     0.28900
H2039       H  0.57575005  0.97988944  0.04562304     0.19400
H2040       H  0.68865219  0.60160791  0.03381522     0.19500
loop_ 
_geom_bond_atom_site_label_1 
_geom_bond_atom_site_label_2 
_geom_bond_distance 
_geom_bond_site_symmetry_2 
_ccdc_geom_bond_type 
N1            C6   1.351       .  A
N1         C1025   1.352       .  A
N1           H33   1.039       .  S
N2           C10   1.351       .  A
N2          C519   1.350       .  A
N3            C7   1.350   1_655  A
N3         C1028   1.351       .  A
N3           H34   1.039       .  S
N4           C12   1.350       .  A
N4          C521   1.350       .  A
C5         N1021   1.352   1_455  A
C5           C13   1.387       .  A
C5           C21   1.411       .  A
C6           C22   1.410       .  A
C6           C14   1.388       .  A
C7           C15   1.387       .  A
C7           C24   1.410       .  A
C8         N1023   1.352       .  A
C8           C23   1.412       .  A
C8           C16   1.386       .  A
C9          N512   1.351       .  A
C9           C21   1.415       .  A
C9           C17   1.386       .  A
C10          C24   1.415       .  A
C10          C18   1.386       .  A
C11         N514   1.348       .  A
C11          C19   1.386       .  A
C11          C22   1.409       .  A
C12          C20   1.386       .  A
C12          C23   1.413       .  A
C13        C1034   1.370   1_455  A
C13          H25   1.082       .  S
C14        C1033   1.370       .  A
C14          H26   1.082       .  S
C15        C1036   1.371   1_455  A
C15          H27   1.082       .  S
C16        C1035   1.372       .  A
C16          H28   1.082       .  S
C17         C528   1.384       .  A
C17          H29   1.082       .  S
C18         C527   1.384       .  A
C18          H30   1.082       .  S
C19         C530   1.380       .  A
C19          H31   1.082       .  S
C20         C529   1.382       .  A
C20          H32   1.082       .  S
C21         C478   1.491       .  S
C22         C466   1.479       .  S
C23         C490   1.490       .  S
C24         C499   1.487       .  S
O35         Ni43   1.916       .  S
O35         C555   1.281       .  A
O36         Ni43   1.916   1_554  S
O36         C556   1.281       .  A
O37         Ni43   1.918       .  S
O37         C557   1.281       .  A
O38         Ni43   1.920   1_554  S
O38         C558   1.282       .  A
O39         Ni44   1.915   1_554  S
O39          C48   1.281       .  A
O40         Ni44   1.916       .  S
O40          C47   1.282       .  A
O41         Ni44   1.912   1_554  S
O41          C46   1.281       .  A
O42         Ni44   1.912       .  S
O42          C45   1.281       .  A
Ni43       Ni554   2.385       .  S
Ni44       Ni553   2.386   1_545  S
C45         C439   1.483       .  S
C45         O545   1.281   1_545  A
C46         C502   1.483       .  S
C46         O546   1.282   1_545  A
C47         C454   1.487       .  S
C47         O547   1.280   1_545  A
C48         C487   1.478       .  S
C48         O548   1.280       .  A
O49         Ni57   1.918       .  S
O49         C569   1.281       .  A
O50         Ni57   1.945       .  S
O50         C570   1.286       .  A
O51         Ni57   1.939       .  S
O51         C571   1.285       .  A
O52         Ni57   1.914       .  S
O52         C572   1.282       .  A
O53         Ni58   1.912       .  S
O53          C62   1.279       .  A
O54         Ni58   1.938       .  S
O54          C61   1.286   1_545  A
O55         Ni58   1.940       .  S
O55          C60   1.284       .  A
O56         Ni58   1.921       .  S
O56          C59   1.283       .  A
Ni57       Ni568   2.382       .  S
Ni58       Ni567   2.383   1_545  S
C59         C475   1.485       .  S
C59         O559   1.281   1_545  A
C60         C415   1.502   1_545  S
C60         O560   1.285   1_545  A
C61         C430   1.509       .  S
C61         O561   1.285       .  A
C62         C463   1.484       .  S
C62         O562   1.281   1_545  A
N63          C67   1.351   1_655  A
N63        C1088   1.352       .  A
N63          H95   1.039       .  S
N64          C71   1.348       .  A
N64          C72   1.349       .  A
N65          C69   1.351   1_655  A
N65        C1090   1.350       .  A
N65          H96   1.040       .  S
N66          C73   1.349       .  A
N66          C74   1.350       .  A
C67          C75   1.388       .  A
C67          C83   1.412       .  A
C68        N1083   1.350       .  A
C68          C84   1.409       .  A
C68          C76   1.387       .  A
C69          C77   1.388       .  A
C69          C86   1.410       .  A
C70        N1085   1.351       .  A
C70          C85   1.409       .  A
C70          C78   1.386       .  A
C71          C83   1.413       .  A
C71          C79   1.387       .  A
C72          C86   1.412       .  A
C72          C80   1.386       .  A
C73          C81   1.386       .  A
C73          C84   1.412       .  A
C74          C82   1.385       .  A
C74          C85   1.411       .  A
C75        C1096   1.371   1_455  A
C75          H87   1.082       .  S
C76        C1095   1.372       .  A
C76          H88   1.082       .  S
C77        C1098   1.369   1_455  A
C77          H89   1.082       .  S
C78        C1097   1.368       .  A
C78          H90   1.082       .  S
C79          C80   1.382       .  A
C79          H91   1.082       .  S
C80          H92   1.082   1_545  S
C81          C82   1.381       .  A
C81          H93   1.082       .  S
C82          H94   1.082   1_545  S
C83         C451   1.483       .  S
C84         C442   1.483       .  S
C85         C394   1.484       .  S
C86         C403   1.482       .  S
O97        Ni105   1.935       .  S
O97         C107   1.285   1_545  A
O98        Ni105   1.915       .  S
O98         C108   1.282       .  A
O99        Ni105   1.917       .  S
O99         C109   1.281       .  A
O100       Ni105   1.934       .  S
O100        C110   1.286   1_545  A
O101       Ni106   1.938       .  S
O101        C620   1.285       .  A
O102       Ni106   1.915       .  S
O102        C619   1.281       .  A
O103       Ni106   1.921       .  S
O103        C618   1.282       .  A
O104       Ni106   1.946       .  S
O104        C617   1.287       .  A
Ni105      Ni616   2.378   1_545  S
Ni106      Ni615   2.378       .  S
C107        C367   1.517       .  S
C107        O614   1.287       .  A
C108        C406   1.485       .  S
C108        O613   1.280   1_545  A
C109        C391   1.491       .  S
C109        O612   1.283   1_545  A
C110        C382   1.525       .  S
C110        O611   1.286       .  A
O111       Ni119   1.945       .  S
O111        C121   1.288   1_455  A
O112       Ni119   1.919       .  S
O112        C122   1.282   1_455  A
O113       Ni119   1.913       .  S
O113        C123   1.280   1_455  A
O114       Ni119   1.941       .  S
O114        C124   1.286   1_455  A
O115       Ni120   1.940       .  S
O115       C1144   1.287       .  A
O116       Ni120   1.916       .  S
O116       C1143   1.282       .  A
O117       Ni120   1.913       .  S
O117       C1142   1.279       .  A
O118       Ni120   1.939       .  S
O118       C1141   1.285       .  A
Ni119     Ni1140   2.378   1_455  S
Ni120     Ni1139   2.379       .  S
C121        C343   1.524       .  S
C121       O1138   1.284       .  A
C122        C331   1.484       .  S
C122       O1137   1.279       .  A
C123        C322   1.484       .  S
C123       O1136   1.282       .  A
C124        C355   1.523       .  S
C124       O1135   1.287       .  A
N125        C129   1.351   1_565  A
N125        C640   1.350       .  A
N125        H157   1.039       .  S
N126        C133   1.350       .  A
N126        C134   1.349       .  A
N127        C131   1.350   1_565  A
N127        C642   1.351       .  A
N127        H158   1.040       .  S
N128        C135   1.348       .  A
N128        C136   1.349       .  A
C129        C137   1.387       .  A
C129        C145   1.411       .  A
C130        N635   1.351       .  A
C130        C146   1.411       .  A
C130        C138   1.387       .  A
C131        C148   1.409       .  A
C131       C1159   1.387       .  A
C132        N637   1.350       .  A
C132        C147   1.409       .  A
C132       C1160   1.387       .  A
C133        C145   1.411       .  A
C133        C141   1.386       .  A
C134        C148   1.411       .  A
C134        C142   1.386       .  A
C135        C143   1.386       .  A
C135        C146   1.411       .  A
C136        C144   1.385       .  A
C136        C147   1.410       .  A
C137        C648   1.371   1_545  A
C137        H149   1.083       .  S
C138        C647   1.372       .  A
C138        H150   1.082       .  S
C139       C1151   1.387       .  A
C139        C650   1.372   1_545  A
C139        H151   1.082       .  S
C140       C1152   1.388       .  A
C140        C649   1.373       .  A
C140        H152   1.082       .  S
C141        C142   1.380       .  A
C141        H153   1.082       .  S
C142        H154   1.082       .  S
C143        C144   1.381       .  A
C143        H155   1.082       .  S
C144        H156   1.082       .  S
C145        C307   1.484       .  S
C146        C295   1.481       .  S
C147       C1339   1.480       .  S
C148       C1354   1.481       .  S
O159       Ni167   1.912       .  S
O159        C169   1.281       .  A
O160       Ni167   1.909       .  S
O160        C170   1.280       .  A
O161       Ni167   1.921       .  S
O161        C171   1.283       .  A
O162       Ni167   1.921       .  S
O162        C172   1.283       .  A
O163       Ni168   1.911       .  S
O163       C1192   1.279       .  A
O164       Ni168   1.912       .  S
O164       C1191   1.280       .  A
O165       Ni168   1.919       .  S
O165       C1190   1.282       .  A
O166       Ni168   1.915       .  S
O166       C1189   1.281       .  A
Ni167     Ni1188   2.384       .  S
Ni168     Ni1187   2.386   1_455  S
C169        C298   1.484       .  S
C169       O1186   1.281       .  A
C170        C283   1.483       .  S
C170       O1185   1.282       .  A
C171        C310   1.481       .  S
C171       O1184   1.279       .  A
C172        C271   1.487       .  S
C172       O1183   1.280       .  A
C173        C358   1.605   1_565  S
C173        C379   1.595   1_655  S
C173        C856   1.602       .  S
C173       C1390   1.596       .  S
N174        C179   1.351   1_565  A
N174        C688   1.351       .  A
N174        H206   1.039       .  S
N175        C182   1.350       .  A
N175        C183   1.350       .  A
N176        C181   1.351   1_565  A
N176        C690   1.350       .  A
N176        H207   1.037       .  S
N177        C184   1.350       .  A
N177        C185   1.349       .  A
C178        N684   1.350       .  A
C178        C186   1.389       .  A
C178        C194   1.411       .  A
C179        C195   1.409       .  A
C179        C187   1.386       .  A
C180        N686   1.350       .  A
C180        C188   1.386       .  A
C180        C197   1.410       .  A
C181        C196   1.413       .  A
C181        C189   1.389       .  A
C182        C194   1.413       .  A
C182        C190   1.386       .  A
C183        C197   1.413       .  A
C183        C191   1.386       .  A
C184        C192   1.385       .  A
C184        C195   1.411       .  A
C185        C193   1.387       .  A
C185        C196   1.413       .  A
C186        C697   1.370       .  A
C186        H198   1.081       .  S
C187        C696   1.370   1_545  A
C187        H199   1.082       .  S
C188        C699   1.373       .  A
C188        H200   1.082       .  S
C189        C698   1.371   1_545  A
C189        H201   1.082       .  S
C190        C191   1.381       .  A
C190        H202   1.082       .  S
C191        H203   1.082       .  S
C192        C193   1.379       .  A
C192        H204   1.082       .  S
C193        H205   1.082       .  S
C194        C247   1.482       .  S
C195        C259   1.484       .  S
C196        C286   1.480       .  S
C197        C274   1.485       .  S
O208       Ni216   1.921       .  S
O208       C1238   1.283       .  A
O209       Ni216   1.945       .  S
O209        C219   1.286       .  A
O210       Ni216   1.938       .  S
O210        C220   1.285       .  A
O211       Ni216   1.919       .  S
O211       C1241   1.281       .  A
O212       Ni217   1.919       .  S
O212        C221   1.282       .  A
O213       Ni217   1.938       .  S
O213       C1240   1.287       .  A
O214       Ni217   1.933       .  S
O214       C1239   1.283       .  A
O215       Ni217   1.911       .  S
O215        C218   1.279       .  A
Ni216     Ni1237   2.382   1_455  S
Ni217     Ni1236   2.382       .  S
C218        C250   1.488       .  S
C218       O1228   1.282       .  A
C219        C238   1.500       .  S
C219       O1234   1.283   1_455  A
C220        C226   1.512       .  S
C220       O1233   1.287   1_455  A
C221        C262   1.488       .  S
C221       O1231   1.281       .  A
C222        C235   1.604   1_565  S
C222        C427   1.615   1_655  S
C222        C733   1.602       .  S
C222       C1438   1.596       .  S
C223        C224   1.421   1_655  A
C223       C1248   1.454       .  A
C223        C732   1.603       .  S
C224        C225   1.412       .  A
C224        H233   1.082       .  S
C225        C226   1.416       .  A
C225        S229   1.799       .  S
C226       C1247   1.395   1_455  A
C227        C228   1.414       .  A
C227       C1246   1.395       .  A
C227        H234   1.083       .  S
C228       C1243   1.455       .  A
C228        S230   1.811       .  S
S229        H232   1.406       .  S
S230        H231   1.408       .  S
C235        C240   1.445       .  A
C235       C1256   1.432       .  A
C236        C237   1.405       .  A
C236       C1255   1.433       .  A
C236        H245   1.083       .  S
C237       C1258   1.403       .  A
C237        S241   1.806       .  S
C238        C239   1.405       .  A
C238       C1257   1.402   1_455  A
C239        C240   1.418   1_455  A
C239        H246   1.085       .  S
C240        S242   1.807   1_545  S
S241        H244   1.403       .  S
S242        H243   1.395       .  S
C247        C248   1.401       .  A
C247        C252   1.409       .  A
C248        C249   1.399       .  A
C248        H257   1.084       .  S
C249        C250   1.419       .  A
C249        S253   1.803       .  S
C250        C251   1.409       .  A
C251        C252   1.397       .  A
C251       H1278   1.083       .  S
C252        S254   1.804       .  S
S253        H256   1.408       .  S
S254       H1275   1.405       .  S
H255       S1274   1.404       .  S
H258       C1271   1.082       .  S
C259        C264   1.412       .  A
C259       C1280   1.398       .  A
C260        C261   1.398       .  A
C260       C1279   1.397       .  A
C260        H269   1.084       .  S
C261       C1282   1.421       .  A
C261        S265   1.799       .  S
C262        C263   1.406       .  A
C262       C1281   1.421       .  A
C263        C264   1.401       .  A
C263        H270   1.084       .  S
C264        S266   1.804       .  S
S265        H268   1.401       .  S
S266        H267   1.406       .  S
C271        C272   1.405       .  A
C271       C1296   1.421       .  A
C272        C273   1.400       .  A
C272        H281   1.084       .  S
C273        C274   1.413       .  A
C273        S277   1.805       .  S
C274       C1295   1.399       .  A
C275        C276   1.398       .  A
C275       C1294   1.397       .  A
C275        H282   1.084       .  S
C276       C1291   1.420       .  A
C276        S278   1.799       .  S
S277        H280   1.405       .  S
S278        H279   1.407       .  S
C283        C288   1.417       .  A
C283       C1304   1.409       .  A
C284        C285   1.402       .  A
C284       C1303   1.408       .  A
C284        H293   1.083       .  S
C285       C1306   1.411       .  A
C285        S289   1.805       .  S
C286        C287   1.400       .  A
C286       C1305   1.410       .  A
C287        C288   1.396       .  A
C287        H294   1.084       .  S
C288        S290   1.802       .  S
S289        H292   1.404       .  S
S290        H291   1.408       .  S
C295        C300   1.409       .  A
C295       C1316   1.402       .  A
C296        C297   1.397       .  A
C296       C1315   1.402   1_455  A
C296        H305   1.084       .  S
C297       C1318   1.413   1_455  A
C297        S301   1.802       .  S
C298        C299   1.410       .  A
C298       C1317   1.415       .  A
C299        C300   1.399       .  A
C299        H306   1.084       .  S
C300        S302   1.804       .  S
S301        H304   1.408       .  S
S302        H303   1.403       .  S
C307        C312   1.409       .  A
C307       C1328   1.403       .  A
C308        C309   1.402       .  A
C308       C1327   1.404   1_455  A
C308        H317   1.083       .  S
C309       C1330   1.413       .  A
C309        S313   1.808       .  S
C310        C311   1.407       .  A
C310       C1329   1.414       .  A
C311        C312   1.399       .  A
C311        H318   1.084       .  S
C312        S314   1.803       .  S
S313        H316   1.407       .  S
S314        H315   1.405       .  S
C319        C320   1.401   1_655  A
C319       C1344   1.409       .  A
C319       C1167   1.480       .  S
C320        C321   1.398       .  A
C320        H329   1.084       .  S
C321        C322   1.416   1_455  A
C321        S325   1.802       .  S
C322       C1343   1.409       .  A
C323        C324   1.400       .  A
C323       C1342   1.408       .  A
C323        H330   1.082       .  S
C324       C1339   1.411       .  A
C324        S326   1.808       .  S
S325        H328   1.408       .  S
S326        H327   1.401       .  S
C331        C332   1.404   1_655  A
C331       C1356   1.420       .  A
C332        C333   1.399       .  A
C332        H341   1.084       .  S
C333        C334   1.412   1_455  A
C333        S337   1.805       .  S
C334       C1355   1.398       .  A
C334       C1168   1.481       .  S
C335        C336   1.402       .  A
C335       C1354   1.398       .  A
C335        H342   1.083       .  S
C336       C1351   1.421       .  A
C336        S338   1.808       .  S
S337        H340   1.405       .  S
S338        H339   1.407       .  S
C343        C344   1.403   1_655  A
C343       C1368   1.420       .  A
C344        C345   1.416       .  A
C344        H353   1.084       .  S
C345        C346   1.450   1_455  A
C345        S349   1.814       .  S
C346       C1367   1.418       .  A
C346        C683   1.603       .  S
C347        C348   1.415       .  A
C347       C1366   1.419       .  A
C347        H354   1.077       .  S
C348       C1363   1.420       .  A
C348        S350   1.798       .  S
S349        H352   1.385       .  S
S350        H351   1.408       .  S
C355        C360   1.422   1_655  A
C355       C1376   1.406       .  A
C356        C357   1.415       .  A
C356       C1375   1.405       .  A
C356        H365   1.082       .  S
C357       C1378   1.440       .  A
C357        S361   1.810       .  S
C358        C359   1.417   1_655  A
C358       C1377   1.440       .  A
C359        C360   1.415       .  A
C359        H366   1.071       .  S
C360        S362   1.800       .  S
S361        H364   1.407       .  S
S362        H363   1.408       .  S
C367        C372   1.421   1_565  A
C367        C878   1.407       .  A
C368        C369   1.420       .  A
C368        C877   1.407       .  A
C368        H377   1.082       .  S
C369        C880   1.437       .  A
C369        S373   1.809       .  S
C370        C371   1.415   1_565  A
C370        C879   1.436       .  A
C370       C1193   1.592       .  S
C371        C372   1.409       .  A
C371        H378   1.078       .  S
C372        S374   1.800       .  S
S373        H376   1.407       .  S
S374        H375   1.407       .  S
C379        C384   1.436   1_565  A
C379        C890   1.417       .  A
C380        C381   1.412       .  A
C380        C889   1.415       .  A
C380        H389   1.079       .  S
C381        C892   1.422       .  A
C381        S385   1.799       .  S
C382        C383   1.409   1_565  A
C382        C891   1.422       .  A
C383        C384   1.418       .  A
C383        H390   1.081       .  S
C384        S386   1.812       .  S
S385        H388   1.408       .  S
S386        H387   1.406       .  S
C391        C396   1.423       .  A
C391        C902   1.406   1_545  A
C392        C393   1.399       .  A
C392        C901   1.405       .  A
C392        H401   1.084       .  S
C393        C904   1.412       .  A
C393        S397   1.803       .  S
C394        C395   1.397       .  A
C394        C903   1.413   1_545  A
C395        C396   1.398       .  A
C395        H402   1.084       .  S
C396        S398   1.799       .  S
S397        H400   1.406       .  S
S398        H399   1.399       .  S
C403        C408   1.410       .  A
C403        C914   1.404   1_545  A
C404        C405   1.401       .  A
C404        C913   1.405       .  A
C404        H413   1.084       .  S
C405        C916   1.415       .  A
C405        S409   1.803       .  S
C406        C407   1.407       .  A
C406        C915   1.415   1_545  A
C407        C408   1.397       .  A
C407        H414   1.082       .  S
C408        S410   1.805       .  S
S409        H412   1.408       .  S
S410        H411   1.402       .  S
C415        C416   1.393       .  A
C415        C930   1.417       .  A
C416        C417   1.413       .  A
C416        H425   1.083   1_565  S
C417        C418   1.445       .  A
C417        S421   1.804       .  S
C418        C929   1.416       .  A
C418       C1242   1.591       .  S
C419        C420   1.415       .  A
C419        C928   1.416       .  A
C419        H426   1.079       .  S
C420        C925   1.417       .  A
C420        S422   1.799       .  S
S421        H424   1.406   1_565  S
S422        H423   1.405       .  S
C427        C428   1.435   1_565  A
C427        C942   1.436       .  A
C428        C429   1.406       .  A
C428        H437   1.077       .  S
C429        C430   1.405   1_545  A
C429        S433   1.805       .  S
C430        C941   1.407       .  A
C431        C432   1.423       .  A
C431        C940   1.408       .  A
C431        H438   1.082       .  S
C432        C937   1.436       .  A
C432        S434   1.806       .  S
S433        H436   1.407       .  S
S434        H435   1.406       .  S
C439        C440   1.409       .  A
C439        C954   1.413       .  A
C440        C441   1.398       .  A
C440        H449   1.084       .  S
C441        C442   1.408       .  A
C441        S445   1.804       .  S
C442        C953   1.404       .  A
C443        C444   1.404       .  A
C443        C952   1.402       .  A
C443        H450   1.083       .  S
C444        C949   1.417       .  A
C444        S446   1.809       .  S
S445        H448   1.405       .  S
S446        H447   1.407       .  S
C451        C456   1.409       .  A
C451        C962   1.403   1_545  A
C452        C453   1.403       .  A
C452        C961   1.406       .  A
C452        H461   1.083       .  S
C453        C964   1.412       .  A
C453        S457   1.808       .  S
C454        C455   1.409       .  A
C454        C963   1.416   1_545  A
C455        C456   1.398       .  A
C455        H462   1.084       .  S
C456        S458   1.805       .  S
S457        H460   1.407       .  S
S458        H459   1.402       .  S
C463        C468   1.421       .  A
C463        C974   1.406   1_545  A
C464        C465   1.397       .  A
C464        C973   1.405       .  A
C464        H473   1.084       .  S
C465        C976   1.412       .  A
C465        S469   1.804       .  S
C466        C467   1.398       .  A
C466        C975   1.410   1_545  A
C467        C468   1.399       .  A
C467        H474   1.084       .  S
C468        S470   1.800       .  S
S469        H472   1.406       .  S
S470        H471   1.408       .  S
C475        C476   1.408       .  A
C475        C990   1.413   1_545  A
C476        C477   1.402       .  A
C476        H485   1.083       .  S
C477        C478   1.412       .  A
C477        S481   1.804       .  S
C478        C989   1.407   1_545  A
C479        C480   1.401       .  A
C479        C988   1.405       .  A
C479        H486   1.084       .  S
C480        C985   1.415       .  A
C480        S482   1.803       .  S
S481        H484   1.405       .  S
S482        H483   1.408       .  S
C487        C488   1.407       .  A
C487       C1002   1.412       .  A
C488        C489   1.400       .  A
C488        H497   1.084       .  S
C489       C1000   1.411       .  A
C489        S493   1.804       .  S
C490        C491   1.406       .  A
C490        C999   1.411       .  A
C491        C492   1.401       .  A
C491        H498   1.084       .  S
C492        C997   1.414       .  A
C492        S494   1.803       .  S
S493        H496   1.405       .  S
S494        H495   1.407       .  S
C499        C500   1.406       .  A
C499       C1014   1.411       .  A
C500        C501   1.399       .  A
C500        H509   1.084       .  S
C501       C1012   1.414       .  A
C501        S505   1.803       .  S
C502        C503   1.408       .  A
C502       C1011   1.411       .  A
C503        C504   1.401       .  A
C503        H510   1.084       .  S
C504       C1009   1.413       .  A
C504        S506   1.808       .  S
S505        H508   1.407       .  S
S506        H507   1.399       .  S
N511        C516   1.350       .  A
N511       C1535   1.351       .  A
N511        H543   1.040       .  S
N512        C520   1.350       .  A
N513       C1538   1.352       .  A
N513        C517   1.350   1_655  A
N513        H544   1.039       .  S
N514        C522   1.349       .  A
C515       N1531   1.352   1_455  A
C515        C523   1.387       .  A
C515        C531   1.412       .  A
C516        C532   1.409       .  A
C516        C524   1.387       .  A
C517        C525   1.388       .  A
C517        C534   1.412       .  A
C518       N1533   1.352       .  A
C518        C533   1.411       .  A
C518        C526   1.387       .  A
C519        C531   1.415       .  A
C519        C527   1.386       .  A
C520        C534   1.415       .  A
C520        C528   1.386       .  A
C521        C529   1.385       .  A
C521        C532   1.411       .  A
C522        C530   1.386       .  A
C522        C533   1.410       .  A
C523       C1544   1.369   1_455  A
C523        H535   1.082       .  S
C524       C1543   1.370       .  A
C524        H536   1.082       .  S
C525       C1546   1.372   1_455  A
C525        H537   1.082       .  S
C526       C1545   1.371       .  A
C526        H538   1.083       .  S
C527        H539   1.082       .  S
C528        H540   1.082       .  S
C529        H541   1.082       .  S
C530        H542   1.082       .  S
C531        C988   1.489       .  S
C532        C976   1.483       .  S
C533       C1000   1.485       .  S
C534       C1009   1.486       .  S
O545       Ni553   1.918       .  S
O546       Ni553   1.920   1_554  S
O547       Ni553   1.913       .  S
O548       Ni553   1.912   1_544  S
O549       Ni554   1.919   1_554  S
O549        C558   1.282       .  A
O550       Ni554   1.920       .  S
O550        C557   1.282       .  A
O551       Ni554   1.918   1_554  S
O551        C556   1.282       .  A
O552       Ni554   1.917       .  S
O552        C555   1.282       .  A
C555        C949   1.488       .  S
C556       C1012   1.484       .  S
C557        C964   1.485       .  S
C558        C997   1.485       .  S
O559       Ni567   1.918       .  S
O560       Ni567   1.942       .  S
O561       Ni567   1.937       .  S
O562       Ni567   1.911       .  S
O563       Ni568   1.914       .  S
O563        C572   1.280       .  A
O564       Ni568   1.935       .  S
O564        C571   1.286       .  A
O565       Ni568   1.944       .  S
O565        C570   1.285       .  A
O566       Ni568   1.922       .  S
O566        C569   1.283       .  A
C569        C985   1.488       .  S
C570        C925   1.508       .  S
C571        C940   1.509       .  S
C572        C973   1.485       .  S
N573       C1598   1.352       .  A
N573        C577   1.351   1_655  A
N573        H605   1.040       .  S
N574        C581   1.350       .  A
N574        C582   1.350       .  A
N575       C1600   1.350       .  A
N575        C579   1.351   1_655  A
N575        H606   1.039       .  S
N576        C583   1.348       .  A
N576        C584   1.348       .  A
C577        C585   1.387       .  A
C577        C593   1.411       .  A
C578       N1593   1.351       .  A
C578        C594   1.410       .  A
C578        C586   1.387       .  A
C579        C587   1.388       .  A
C579        C596   1.410       .  A
C580       N1595   1.350       .  A
C580        C595   1.408       .  A
C580        C588   1.386       .  A
C581        C593   1.414       .  A
C581        C589   1.386       .  A
C582        C596   1.414       .  A
C582        C590   1.386       .  A
C583        C591   1.386       .  A
C583        C594   1.411       .  A
C584        C592   1.385       .  A
C584        C595   1.410       .  A
C585       C1606   1.371   1_455  A
C585        H597   1.082       .  S
C586       C1605   1.372       .  A
C586        H598   1.082       .  S
C587       C1608   1.370   1_455  A
C587        H599   1.082       .  S
C588       C1607   1.369       .  A
C588        H600   1.082       .  S
C589        C590   1.383       .  A
C589        H601   1.082       .  S
C590        H602   1.082       .  S
C591        C592   1.381       .  A
C591        H603   1.082       .  S
C592        H604   1.082       .  S
C593        C961   1.488       .  S
C594        C952   1.483       .  S
C595        C904   1.481       .  S
C596        C913   1.484       .  S
O607       Ni615   1.938       .  S
O607        C617   1.285       .  A
O608       Ni615   1.915       .  S
O608        C618   1.282       .  A
O609       Ni615   1.919       .  S
O609        C619   1.282       .  A
O610       Ni615   1.937       .  S
O610        C620   1.286       .  A
O611       Ni616   1.945       .  S
O612       Ni616   1.922       .  S
O613       Ni616   1.913       .  S
O614       Ni616   1.943       .  S
C617        C877   1.519       .  S
C618        C916   1.489       .  S
C619        C901   1.486       .  S
C620        C892   1.522       .  S
O621       Ni629   1.942       .  S
O621        C631   1.287   1_455  A
O622       Ni629   1.924       .  S
O622        C632   1.284   1_455  A
O623       Ni629   1.910       .  S
O623        C633   1.280   1_455  A
O624       Ni629   1.935       .  S
O624        C634   1.284   1_455  A
O625       Ni630   1.942       .  S
O625       C1654   1.288       .  A
O626       Ni630   1.921       .  S
O626       C1653   1.283       .  A
O627       Ni630   1.906       .  S
O627       C1652   1.278       .  A
O628       Ni630   1.932       .  S
O628       C1651   1.283       .  A
Ni629     Ni1650   2.379   1_455  S
Ni630     Ni1649   2.379       .  S
C631        C853   1.521       .  S
C631       O1648   1.285       .  A
C632        C841   1.490       .  S
C632       O1647   1.280       .  A
C633        C832   1.476       .  S
C633       O1646   1.281       .  A
C634        C865   1.520       .  S
C634       O1645   1.287       .  A
N635        C639   1.352       .  A
N635        H667   1.039       .  S
N636        C643   1.349       .  A
N636        C644   1.348       .  A
N637        C641   1.349       .  A
N637        H668   1.040       .  S
N638        C645   1.349       .  A
N638        C646   1.350       .  A
C639        C647   1.387       .  A
C639        C655   1.412       .  A
C640        C656   1.411       .  A
C640        C648   1.388       .  A
C641       C1669   1.387       .  A
C641        C658   1.408       .  A
C642        C657   1.410       .  A
C642       C1670   1.387       .  A
C643        C655   1.411       .  A
C643        C651   1.386       .  A
C644        C658   1.410       .  A
C644        C652   1.386       .  A
C645        C653   1.386       .  A
C645        C656   1.412       .  A
C646        C654   1.385       .  A
C646        C657   1.411       .  A
C647        H659   1.082       .  S
C648        H660   1.082       .  S
C649       C1661   1.386       .  A
C649        H661   1.082       .  S
C650       C1662   1.387       .  A
C650        H662   1.083       .  S
C651        C652   1.380       .  A
C651        H663   1.082       .  S
C652        H664   1.082       .  S
C653        C654   1.380       .  A
C653        H665   1.082       .  S
C654        H666   1.082       .  S
C655        C817   1.484       .  S
C656        C805   1.481       .  S
C657       C1849   1.484       .  S
C658       C1864   1.478       .  S
O669       Ni677   1.910       .  S
O669        C679   1.280       .  A
O670       Ni677   1.908       .  S
O670        C680   1.279       .  A
O671       Ni677   1.922       .  S
O671        C681   1.284       .  A
O672       Ni677   1.919       .  S
O672        C682   1.282       .  A
O673       Ni678   1.917       .  S
O673       C1702   1.280       .  A
O674       Ni678   1.913       .  S
O674       C1701   1.280       .  A
O675       Ni678   1.917       .  S
O675       C1700   1.282       .  A
O676       Ni678   1.918       .  S
O676       C1699   1.282       .  A
Ni677     Ni1698   2.383       .  S
Ni678     Ni1697   2.385   1_455  S
C679        C808   1.483       .  S
C679       O1696   1.281       .  A
C680        C793   1.484       .  S
C680       O1695   1.282       .  A
C681        C820   1.489       .  S
C681       O1694   1.279       .  A
C682        C781   1.483       .  S
C682       O1693   1.279       .  A
C683        C868   1.601       .  S
C683       C1900   1.595       .  S
C683        C889   1.591   1_655  S
N684        C689   1.350       .  A
N684        H716   1.039       .  S
N685        C692   1.349       .  A
N685        C693   1.350       .  A
N686        C691   1.351       .  A
N686        H717   1.038       .  S
N687        C694   1.349       .  A
N687        C695   1.349       .  A
C688        C696   1.388       .  A
C688        C704   1.410       .  A
C689        C705   1.408       .  A
C689        C697   1.385       .  A
C690        C698   1.386       .  A
C690        C707   1.410       .  A
C691        C706   1.412       .  A
C691        C699   1.388       .  A
C692        C704   1.411       .  A
C692        C700   1.386       .  A
C693        C707   1.411       .  A
C693        C701   1.386       .  A
C694        C702   1.385       .  A
C694        C705   1.409       .  A
C695        C703   1.386       .  A
C695        C706   1.411       .  A
C696        H708   1.082       .  S
C697        H709   1.082       .  S
C698        H710   1.083       .  S
C699        H711   1.082       .  S
C700        C701   1.379       .  A
C700        H712   1.082       .  S
C701        H713   1.082       .  S
C702        C703   1.380       .  A
C702        H714   1.082       .  S
C703        H715   1.082       .  S
C704        C757   1.480       .  S
C705        C769   1.481       .  S
C706        C796   1.481       .  S
C707        C784   1.482       .  S
O718       Ni726   1.921       .  S
O718       C1748   1.283       .  A
O719       Ni726   1.942       .  S
O719        C729   1.286       .  A
O720       Ni726   1.939       .  S
O720        C730   1.285       .  A
O721       Ni726   1.916       .  S
O721       C1751   1.280       .  A
O722       Ni727   1.919       .  S
O722        C731   1.282       .  A
O723       Ni727   1.938       .  S
O723       C1750   1.286       .  A
O724       Ni727   1.930       .  S
O724       C1749   1.282       .  A
O725       Ni727   1.907       .  S
O725        C728   1.278       .  A
Ni726     Ni1747   2.382   1_455  S
Ni727     Ni1746   2.383       .  S
C728        C760   1.487       .  S
C728       O1738   1.283       .  A
C729        C748   1.497   1_455  S
C729       O1744   1.282   1_455  A
C730        C736   1.511       .  S
C730       O1743   1.287   1_455  A
C731        C772   1.484       .  S
C731       O1741   1.280       .  A
C732        C745   1.602       .  S
C732       C1948   1.592       .  S
C732        C937   1.613   1_655  S
C733        C734   1.421   1_655  A
C733       C1758   1.454       .  A
C734        C735   1.412       .  A
C734        H743   1.083       .  S
C735        C736   1.415       .  A
C735        S739   1.799       .  S
C736       C1757   1.395   1_455  A
C737       C1756   1.395       .  A
C737        C738   1.414       .  A
C737        H744   1.083       .  S
C738       C1753   1.455       .  A
C738        S740   1.813       .  S
S739        H742   1.406       .  S
S740        H741   1.407       .  S
C745       C1766   1.433       .  A
C745        C750   1.442       .  A
C746       C1765   1.433       .  A
C746        C747   1.407       .  A
C746        H755   1.083       .  S
C747       C1768   1.404       .  A
C747        S751   1.808       .  S
C748       C1767   1.403       .  A
C748        C749   1.405   1_655  A
C749        C750   1.417   1_455  A
C749        H756   1.085       .  S
C750        S752   1.806       .  S
S751        H754   1.403       .  S
S752        H753   1.396       .  S
C757        C758   1.400       .  A
C757        C762   1.409       .  A
C758        C759   1.397       .  A
C758        H767   1.084       .  S
C759        C760   1.419       .  A
C759        S763   1.803       .  S
C760        C761   1.409       .  A
C761        C762   1.399       .  A
C761       H1788   1.083       .  S
C762        S764   1.804       .  S
S763        H766   1.408       .  S
S764       H1785   1.404       .  S
H765       S1784   1.403       .  S
H768       C1781   1.082       .  S
C769       C1790   1.397       .  A
C769        C774   1.412       .  A
C770       C1789   1.397       .  A
C770        C771   1.398       .  A
C770        H779   1.084       .  S
C771       C1792   1.422       .  A
C771        S775   1.800       .  S
C772       C1791   1.421       .  A
C772        C773   1.404       .  A
C773        C774   1.399       .  A
C773        H780   1.084       .  S
C774        S776   1.804       .  S
S775        H778   1.401       .  S
S776        H777   1.406       .  S
C781        C782   1.404       .  A
C781       C1806   1.420       .  A
C782        C783   1.398       .  A
C782        H791   1.084       .  S
C783        C784   1.413       .  A
C783        S787   1.805       .  S
C784       C1805   1.398       .  A
C785       C1804   1.399       .  A
C785        C786   1.401       .  A
C785        H792   1.084       .  S
C786       C1801   1.421       .  A
C786        S788   1.799       .  S
S787        H790   1.405       .  S
S788        H789   1.407       .  S
C793       C1814   1.409       .  A
C793        C798   1.417       .  A
C794       C1813   1.408       .  A
C794        C795   1.399       .  A
C794        H803   1.083       .  S
C795       C1816   1.409       .  A
C795        S799   1.803       .  S
C796       C1815   1.409       .  A
C796        C797   1.400       .  A
C797        C798   1.396       .  A
C797        H804   1.084       .  S
C798        S800   1.803       .  S
S799        H802   1.404       .  S
S800        H801   1.408       .  S
C805       C1826   1.402       .  A
C805        C810   1.409       .  A
C806       C1825   1.405   1_455  A
C806        C807   1.398       .  A
C806        H815   1.084       .  S
C807       C1828   1.412   1_455  A
C807        S811   1.802       .  S
C808       C1827   1.415       .  A
C808        C809   1.409       .  A
C809        C810   1.399       .  A
C809        H816   1.084       .  S
C810        S812   1.804       .  S
S811        H814   1.407       .  S
S812        H813   1.403       .  S
C817       C1838   1.401       .  A
C817        C822   1.408       .  A
C818       C1837   1.403   1_455  A
C818        C819   1.401       .  A
C818        H827   1.083       .  S
C819       C1840   1.414   1_455  A
C819        S823   1.808       .  S
C820       C1839   1.420       .  A
C820        C821   1.409       .  A
C821        C822   1.399       .  A
C821        H828   1.083       .  S
C822        S824   1.802       .  S
S823        H826   1.407       .  S
S824        H825   1.405       .  S
C829        C830   1.404       .  A
C829       C1854   1.411       .  A
C829       C1677   1.484       .  S
C830        C831   1.397   1_655  A
C830        H839   1.084   1_655  S
C831        C832   1.412   1_455  A
C831        S835   1.804       .  S
C832       C1853   1.407       .  A
C833       C1852   1.408       .  A
C833        C834   1.400       .  A
C833        H840   1.083       .  S
C834       C1849   1.411       .  A
C834        S836   1.807       .  S
S835        H838   1.408       .  S
S836        H837   1.402       .  S
C841        C842   1.406   1_655  A
C841       C1866   1.422       .  A
C842        C843   1.401       .  A
C842        H851   1.084       .  S
C843        C844   1.413   1_455  A
C843        S847   1.805       .  S
C844       C1865   1.398       .  A
C844       C1678   1.485       .  S
C845       C1864   1.397       .  A
C845        C846   1.397       .  A
C845        H852   1.084       .  S
C846       C1861   1.420       .  A
C846        S848   1.800       .  S
S847        H850   1.405       .  S
S848        H849   1.407       .  S
C853        C854   1.403   1_655  A
C853       C1878   1.420       .  A
C854        C855   1.415       .  A
C854        H863   1.084       .  S
C855        C856   1.448   1_455  A
C855        S859   1.813       .  S
C856       C1877   1.418       .  A
C857       C1876   1.417       .  A
C857        C858   1.411       .  A
C857        H864   1.076       .  S
C858       C1873   1.420       .  A
C858        S860   1.799       .  S
S859        H862   1.386       .  S
S860        H861   1.407       .  S
C865       C1886   1.406       .  A
C865        C870   1.422   1_655  A
C866       C1885   1.406       .  A
C866        C867   1.418       .  A
C866        H875   1.082       .  S
C867       C1888   1.439       .  A
C867        S871   1.811       .  S
C868       C1887   1.440       .  A
C868        C869   1.415   1_655  A
C869        C870   1.412       .  A
C869        H876   1.070       .  S
C870        S872   1.800       .  S
S871        H874   1.407       .  S
S872        H873   1.408       .  S
C877        C882   1.421       .  A
C878        C879   1.419       .  A
C878        H887   1.082       .  S
C879        S883   1.809       .  S
C880        C881   1.416       .  A
C880       C1703   1.596       .  S
C881        C882   1.410       .  A
C881        H888   1.078       .  S
C882        S884   1.801       .  S
S883        H886   1.406       .  S
S884        H885   1.407       .  S
C889        C894   1.436       .  A
C890        C891   1.415       .  A
C890        H899   1.079       .  S
C891        S895   1.799       .  S
C892        C893   1.409       .  A
C893        C894   1.417       .  A
C893        H900   1.082       .  S
C894        S896   1.809       .  S
S895        H898   1.407       .  S
S896        H897   1.407       .  S
C901        C906   1.421       .  A
C902        C903   1.401       .  A
C902        H911   1.084       .  S
C903        S907   1.805       .  S
C904        C905   1.397       .  A
C905        C906   1.398       .  A
C905        H912   1.084       .  S
C906        S908   1.797       .  S
S907        H910   1.405       .  S
S908        H909   1.398       .  S
C913        C918   1.410       .  A
C914        C915   1.399       .  A
C914        H923   1.084       .  S
C915        S919   1.803       .  S
C916        C917   1.409       .  A
C917        C918   1.398       .  A
C917        H924   1.083       .  S
C918        S920   1.804       .  S
S919        H922   1.408       .  S
S920        H921   1.402       .  S
C925        C926   1.396       .  A
C926        C927   1.417       .  A
C926        H935   1.082       .  S
C927        C928   1.445       .  A
C927        S931   1.806       .  S
C928       C1752   1.595       .  S
C929        C930   1.414       .  A
C929        H936   1.079       .  S
C930        S932   1.799   1_565  S
S931        H934   1.406       .  S
S932        H933   1.404   1_545  S
C937        C938   1.434       .  A
C938        C939   1.403       .  A
C938        H947   1.077       .  S
C939        C940   1.404       .  A
C939        S943   1.805       .  S
C941        C942   1.422       .  A
C941        H948   1.082       .  S
C942        S944   1.805       .  S
S943        H946   1.408       .  S
S944        H945   1.406       .  S
C949        C950   1.409       .  A
C950        C951   1.399       .  A
C950        H959   1.084       .  S
C951        C952   1.409       .  A
C951        S955   1.805       .  S
C953        C954   1.403       .  A
C953        H960   1.083   1_545  S
C954        S956   1.808   1_545  S
S955        H958   1.402       .  S
S956        H957   1.407       .  S
C961        C966   1.411       .  A
C962        C963   1.403       .  A
C962        H971   1.083       .  S
C963        S967   1.809       .  S
C964        C965   1.409       .  A
C965        C966   1.402       .  A
C965        H972   1.084       .  S
C966        S968   1.805       .  S
S967        H970   1.407       .  S
S968        H969   1.404       .  S
C973        C978   1.421       .  A
C974        C975   1.396       .  A
C974        H983   1.084       .  S
C975        S979   1.804       .  S
C976        C977   1.399       .  A
C977        C978   1.400       .  A
C977        H984   1.084       .  S
C978        S980   1.799       .  S
S979        H982   1.406       .  S
S980        H981   1.408       .  S
C985        C986   1.409       .  A
C986        C987   1.402       .  A
C986        H995   1.083       .  S
C987        C988   1.412       .  A
C987        S991   1.805       .  S
C989        C990   1.401       .  A
C989        H996   1.084       .  S
C990        S992   1.803       .  S
S991        H994   1.404       .  S
S992        H993   1.408       .  S
C997        C998   1.408       .  A
C998        C999   1.402       .  A
C998       H1007   1.084       .  S
C999       S1003   1.804       .  S
C1000      C1001   1.405       .  A
C1001      C1002   1.397       .  A
C1001      H1008   1.084   1_545  S
C1002      S1004   1.803   1_545  S
S1003      H1006   1.405       .  S
S1004      H1005   1.407       .  S
C1009      C1010   1.407       .  A
C1010      C1011   1.399       .  A
C1010      H1019   1.084   1_545  S
C1011      S1015   1.803   1_545  S
C1012      C1013   1.409       .  A
C1013      C1014   1.402       .  A
C1013      H1020   1.084       .  S
C1014      S1016   1.805       .  S
S1015      H1018   1.408       .  S
S1016      H1017   1.403       .  S
N1021      C1026   1.350       .  A
N1021      H1053   1.040       .  S
N1022      C1539   1.349       .  A
N1022      C1030   1.349       .  A
N1023      C1027   1.352       .  A
N1023      H1054   1.040       .  S
N1024      C1541   1.348       .  A
N1024      C1032   1.349       .  A
C1025      C1033   1.387       .  A
C1025      C1041   1.411       .  A
C1026      C1042   1.410       .  A
C1026      C1034   1.387       .  A
C1027      C1035   1.387       .  A
C1027      C1044   1.412       .  A
C1028      C1043   1.408       .  A
C1028      C1036   1.386       .  A
C1029      N1532   1.352       .  A
C1029      C1041   1.415       .  A
C1029      C1037   1.385       .  A
C1030      C1044   1.413       .  A
C1030      C1038   1.386       .  A
C1031      N1534   1.347       .  A
C1031      C1039   1.386       .  A
C1031      C1042   1.408       .  A
C1032      C1040   1.386       .  A
C1032      C1043   1.410       .  A
C1033      H1045   1.082       .  S
C1034      H1046   1.082       .  S
C1035      H1047   1.082       .  S
C1036      H1048   1.083       .  S
C1037      C1548   1.383       .  A
C1037      H1049   1.082       .  S
C1038      C1547   1.384       .  A
C1038      H1050   1.082       .  S
C1039      C1550   1.380       .  A
C1039      H1051   1.082       .  S
C1040      C1549   1.381       .  A
C1040      H1052   1.082       .  S
C1041      C1498   1.490       .  S
C1042      C1486   1.478       .  S
C1043      C1510   1.483       .  S
C1044      C1519   1.487       .  S
O1055     Ni1063   1.917       .  S
O1055      C1575   1.281       .  A
O1056     Ni1063   1.919   1_554  S
O1056      C1576   1.282       .  A
O1057     Ni1063   1.920       .  S
O1057      C1577   1.282       .  A
O1058     Ni1063   1.916   1_554  S
O1058      C1578   1.281       .  A
O1059     Ni1064   1.912   1_554  S
O1059      C1068   1.281       .  A
O1060     Ni1064   1.916       .  S
O1060      C1067   1.281       .  A
O1061     Ni1064   1.917   1_554  S
O1061      C1066   1.282       .  A
O1062     Ni1064   1.915       .  S
O1062      C1065   1.282       .  A
Ni1063    Ni1574   2.386       .  S
Ni1064    Ni1573   2.386   1_545  S
C1065      C1459   1.484       .  S
C1065      O1565   1.281   1_545  A
C1066      C1522   1.484       .  S
C1066      O1566   1.282       .  A
C1067      C1474   1.484       .  S
C1067      O1567   1.281       .  A
C1068      C1507   1.478       .  S
C1068      O1568   1.281   1_545  A
O1069     Ni1077   1.916       .  S
O1069      C1589   1.281       .  A
O1070     Ni1077   1.942       .  S
O1070      C1590   1.286       .  A
O1071     Ni1077   1.937       .  S
O1071      C1591   1.285       .  A
O1072     Ni1077   1.915       .  S
O1072      C1592   1.282       .  A
O1073     Ni1078   1.912       .  S
O1073      C1082   1.279       .  A
O1074     Ni1078   1.936       .  S
O1074      C1081   1.286   1_545  A
O1075     Ni1078   1.943       .  S
O1075      C1080   1.285       .  A
O1076     Ni1078   1.920       .  S
O1076      C1079   1.283       .  A
Ni1077    Ni1588   2.383       .  S
Ni1078    Ni1587   2.382   1_545  S
C1079      C1495   1.487       .  S
C1079      O1579   1.282   1_545  A
C1080      C1435   1.508   1_545  S
C1080      O1580   1.287   1_545  A
C1081      C1450   1.511       .  S
C1081      O1581   1.285       .  A
C1082      C1483   1.483       .  S
C1082      O1582   1.282   1_545  A
N1083      C1087   1.351       .  A
N1083      H1115   1.039       .  S
N1084      C1091   1.350       .  A
N1084      C1092   1.349       .  A
N1085      C1089   1.351       .  A
N1085      H1116   1.039       .  S
N1086      C1093   1.349       .  A
N1086      C1094   1.349       .  A
C1087      C1095   1.387       .  A
C1087      C1103   1.411       .  A
C1088      C1104   1.411       .  A
C1088      C1096   1.387       .  A
C1089      C1097   1.389       .  A
C1089      C1106   1.412       .  A
C1090      C1105   1.408       .  A
C1090      C1098   1.387       .  A
C1091      C1103   1.413       .  A
C1091      C1099   1.386       .  A
C1092      C1106   1.413       .  A
C1092      C1100   1.386       .  A
C1093      C1101   1.386       .  A
C1093      C1104   1.412       .  A
C1094      C1102   1.385       .  A
C1094      C1105   1.411       .  A
C1095      H1107   1.083       .  S
C1096      H1108   1.082       .  S
C1097      H1109   1.082       .  S
C1098      H1110   1.082       .  S
C1099      C1100   1.383       .  A
C1099      H1111   1.082       .  S
C1100      H1112   1.082   1_545  S
C1101      C1102   1.381       .  A
C1101      H1113   1.082       .  S
C1102      H1114   1.082   1_545  S
C1103      C1471   1.487       .  S
C1104      C1462   1.486       .  S
C1105      C1414   1.482       .  S
C1106      C1423   1.482       .  S
O1117     Ni1125   1.938       .  S
O1117      C1127   1.285   1_545  A
O1118     Ni1125   1.916       .  S
O1118      C1128   1.282       .  A
O1119     Ni1125   1.918       .  S
O1119      C1129   1.281       .  A
O1120     Ni1125   1.934       .  S
O1120      C1130   1.285   1_545  A
O1121     Ni1126   1.944       .  S
O1121      C1640   1.286       .  A
O1122     Ni1126   1.920       .  S
O1122      C1639   1.282       .  A
O1123     Ni1126   1.913       .  S
O1123      C1638   1.280       .  A
O1124     Ni1126   1.941       .  S
O1124      C1637   1.286       .  A
Ni1125    Ni1636   2.378   1_545  S
Ni1126    Ni1635   2.378       .  S
C1127      C1387   1.519       .  S
C1127      O1634   1.287       .  A
C1128      C1426   1.488       .  S
C1128      O1633   1.280   1_545  A
C1129      C1411   1.488       .  S
C1129      O1632   1.282   1_545  A
C1130      C1402   1.521       .  S
C1130      O1631   1.285       .  A
O1131     Ni1139   1.940       .  S
O1131      C1141   1.287       .  A
O1132     Ni1139   1.918       .  S
O1132      C1142   1.282       .  A
O1133     Ni1139   1.910       .  S
O1133      C1143   1.280       .  A
O1134     Ni1139   1.934       .  S
O1134      C1144   1.283       .  A
O1135     Ni1140   1.940       .  S
O1136     Ni1140   1.915       .  S
O1137     Ni1140   1.912       .  S
O1138     Ni1140   1.938       .  S
C1141      C1363   1.521       .  S
C1142      C1351   1.482       .  S
C1143      C1342   1.480       .  S
C1144      C1375   1.519       .  S
N1145      C1660   1.350       .  A
N1145      C1149   1.352   1_565  A
N1145      H1177   1.039       .  S
N1146      C1153   1.349       .  A
N1146      C1154   1.349       .  A
N1147      C1662   1.351       .  A
N1147      C1151   1.350   1_565  A
N1147      H1178   1.039       .  S
N1148      C1155   1.348       .  A
N1148      C1156   1.348       .  A
C1149      C1157   1.386       .  A
C1149      C1165   1.411       .  A
C1150      N1655   1.350       .  A
C1150      C1166   1.410       .  A
C1150      C1158   1.387       .  A
C1151      C1168   1.409       .  A
C1152      N1657   1.351       .  A
C1152      C1167   1.412       .  A
C1153      C1165   1.411       .  A
C1153      C1161   1.386       .  A
C1154      C1168   1.411       .  A
C1154      C1162   1.386       .  A
C1155      C1163   1.386       .  A
C1155      C1166   1.409       .  A
C1156      C1164   1.386       .  A
C1156      C1167   1.410       .  A
C1157      C1668   1.372   1_545  A
C1157      H1169   1.082       .  S
C1158      C1667   1.373       .  A
C1158      H1170   1.082       .  S
C1159      C1670   1.371   1_545  A
C1159      H1171   1.082       .  S
C1160      C1669   1.372       .  A
C1160      H1172   1.082       .  S
C1161      C1162   1.381       .  A
C1161      H1173   1.082   1_655  S
C1162      H1174   1.082   1_655  S
C1163      C1164   1.381       .  A
C1163      H1175   1.082   1_655  S
C1164      H1176   1.082       .  S
C1165      C1327   1.485       .  S
C1166      C1315   1.479       .  S
O1179     Ni1187   1.911       .  S
O1179      C1189   1.281   1_655  A
O1180     Ni1187   1.914       .  S
O1180      C1190   1.281   1_655  A
O1181     Ni1187   1.918       .  S
O1181      C1191   1.282   1_655  A
O1182     Ni1187   1.917       .  S
O1182      C1192   1.282   1_655  A
O1183     Ni1188   1.914       .  S
O1184     Ni1188   1.910       .  S
O1185     Ni1188   1.916       .  S
O1186     Ni1188   1.916       .  S
C1189      C1318   1.480   1_455  S
C1190      C1303   1.481       .  S
C1191      C1330   1.481       .  S
C1192      C1291   1.481       .  S
C1193      C1876   1.597       .  S
C1193      C1378   1.601   1_565  S
C1193      C1399   1.591       .  S
N1194      C1199   1.351   1_565  A
N1194      C1708   1.351       .  A
N1194      H1226   1.039       .  S
N1195      C1202   1.349       .  A
N1195      C1203   1.348       .  A
N1196      C1201   1.351   1_565  A
N1196      C1710   1.350       .  A
N1196      H1227   1.039       .  S
N1197      C1204   1.350       .  A
N1197      C1205   1.350       .  A
C1198      N1704   1.351       .  A
C1198      C1206   1.387       .  A
C1198      C1214   1.410       .  A
C1199      C1215   1.409       .  A
C1199      C1207   1.386       .  A
C1200      N1706   1.349       .  A
C1200      C1208   1.386       .  A
C1200      C1217   1.408       .  A
C1201      C1216   1.411       .  A
C1201      C1209   1.388       .  A
C1202      C1214   1.410       .  A
C1202      C1210   1.386       .  A
C1203      C1217   1.410       .  A
C1203      C1211   1.386       .  A
C1204      C1212   1.386       .  A
C1204      C1215   1.412       .  A
C1205      C1213   1.386       .  A
C1205      C1216   1.413       .  A
C1206      C1717   1.370       .  A
C1206      H1218   1.082       .  S
C1207      C1716   1.371   1_545  A
C1207      H1219   1.082       .  S
C1208      C1719   1.373       .  A
C1208      H1220   1.082       .  S
C1209      C1718   1.373   1_545  A
C1209      H1221   1.082       .  S
C1210      C1211   1.380       .  A
C1210      H1222   1.082       .  S
C1211      H1223   1.082       .  S
C1212      C1213   1.380       .  A
C1212      H1224   1.082       .  S
C1213      H1225   1.082       .  S
C1214      C1267   1.482       .  S
C1215      C1279   1.483       .  S
C1216      C1306   1.484       .  S
C1217      C1294   1.479       .  S
O1228     Ni1236   1.915       .  S
O1229     Ni1236   1.941       .  S
O1229      C1239   1.285       .  A
O1230     Ni1236   1.938       .  S
O1230      C1240   1.285       .  A
O1231     Ni1236   1.920       .  S
O1232     Ni1237   1.921       .  S
O1232      C1241   1.283   1_655  A
O1233     Ni1237   1.939       .  S
O1234     Ni1237   1.933       .  S
O1235     Ni1237   1.910       .  S
O1235      C1238   1.279   1_655  A
C1238      C1270   1.487       .  S
C1239      C1258   1.497       .  S
C1240      C1246   1.512       .  S
C1241      C1282   1.489       .  S
C1242      C1753   1.600       .  S
C1242      C1255   1.603   1_565  S
C1242      C1447   1.616       .  S
C1243      C1244   1.421       .  A
C1243      C1752   1.604       .  S
C1244      C1245   1.413       .  A
C1244      H1253   1.083       .  S
C1245      C1246   1.416       .  A
C1245      S1249   1.799       .  S
C1247      C1248   1.414       .  A
C1247      H1254   1.083       .  S
C1248      S1250   1.812       .  S
S1249      H1252   1.406       .  S
S1250      H1251   1.408       .  S
C1255      C1260   1.444       .  A
C1256      C1257   1.407       .  A
C1256      H1265   1.083       .  S
C1257      S1261   1.803       .  S
C1258      C1259   1.404       .  A
C1259      C1260   1.417       .  A
C1259      H1266   1.085       .  S
C1260      S1262   1.807   1_545  S
S1261      H1264   1.405       .  S
S1262      H1263   1.395       .  S
C1267      C1268   1.402       .  A
C1267      C1272   1.409       .  A
C1268      C1269   1.398   1_455  A
C1268      H1277   1.084   1_455  S
C1269      C1270   1.417   1_655  A
C1269      S1273   1.803       .  S
C1270      C1271   1.408       .  A
C1271      C1272   1.399       .  A
C1272      S1274   1.803       .  S
S1273      H1276   1.408       .  S
C1279      C1284   1.413   1_455  A
C1280      C1281   1.399       .  A
C1280      H1289   1.084       .  S
C1281      S1285   1.800       .  S
C1282      C1283   1.406   1_455  A
C1283      C1284   1.401       .  A
C1283      H1290   1.084       .  S
C1284      S1286   1.805       .  S
S1285      H1288   1.402       .  S
S1286      H1287   1.405       .  S
C1291      C1292   1.404       .  A
C1292      C1293   1.397       .  A
C1292      H1301   1.084   1_455  S
C1293      C1294   1.412       .  A
C1293      S1297   1.804   1_455  S
C1295      C1296   1.400       .  A
C1295      H1302   1.084       .  S
C1296      S1298   1.800       .  S
S1297      H1300   1.406       .  S
S1298      H1299   1.408       .  S
C1303      C1308   1.413       .  A
C1304      C1305   1.399       .  A
C1304      H1313   1.083       .  S
C1305      S1309   1.804       .  S
C1306      C1307   1.403       .  A
C1307      C1308   1.397       .  A
C1307      H1314   1.084   1_455  S
C1308      S1310   1.803   1_455  S
S1309      H1312   1.405       .  S
S1310      H1311   1.408       .  S
C1315      C1320   1.411       .  A
C1316      C1317   1.398       .  A
C1316      H1325   1.084       .  S
C1317      S1321   1.802       .  S
C1318      C1319   1.408       .  A
C1319      C1320   1.399       .  A
C1319      H1326   1.084       .  S
C1320      S1322   1.808       .  S
S1321      H1324   1.408       .  S
S1322      H1323   1.402       .  S
C1327      C1332   1.410       .  A
C1328      C1329   1.401       .  A
C1328      H1337   1.083       .  S
C1329      S1333   1.809       .  S
C1330      C1331   1.407   1_455  A
C1331      C1332   1.400       .  A
C1331      H1338   1.084       .  S
C1332      S1334   1.804       .  S
S1333      H1336   1.407       .  S
S1334      H1335   1.405       .  S
C1339      C1340   1.403       .  A
C1340      C1341   1.396       .  A
C1340      H1349   1.084       .  S
C1341      C1342   1.414       .  A
C1341      S1345   1.803       .  S
C1343      C1344   1.398       .  A
C1343      H1350   1.083       .  S
C1344      S1346   1.804       .  S
S1345      H1348   1.408       .  S
S1346      H1347   1.404       .  S
C1351      C1352   1.403       .  A
C1352      C1353   1.397       .  A
C1352      H1361   1.084       .  S
C1353      C1354   1.412       .  A
C1353      S1357   1.805       .  S
C1355      C1356   1.398       .  A
C1355      H1362   1.084       .  S
C1356      S1358   1.799       .  S
S1357      H1360   1.405       .  S
S1358      H1359   1.407       .  S
C1363      C1364   1.402       .  A
C1364      C1365   1.414       .  A
C1364      H1373   1.084       .  S
C1365      C1366   1.448       .  A
C1365      S1369   1.812       .  S
C1366      C1703   1.602       .  S
C1367      C1368   1.413       .  A
C1367      H1374   1.077       .  S
C1368      S1370   1.798       .  S
S1369      H1372   1.386       .  S
S1370      H1371   1.408       .  S
C1375      C1380   1.422       .  A
C1376      C1377   1.418       .  A
C1376      H1385   1.082       .  S
C1377      S1381   1.813       .  S
C1378      C1379   1.415       .  A
C1379      C1380   1.413       .  A
C1379      H1386   1.071       .  S
C1380      S1382   1.801       .  S
S1381      H1384   1.406       .  S
S1382      H1383   1.408       .  S
C1387      C1898   1.406       .  A
C1387      C1392   1.421   1_565  A
C1388      C1897   1.407       .  A
C1388      C1389   1.420       .  A
C1388      H1397   1.082       .  S
C1389      C1900   1.436       .  A
C1389      S1393   1.811       .  S
C1390      C1899   1.436       .  A
C1390      C1391   1.417   1_565  A
C1391      C1392   1.412       .  A
C1391      H1398   1.078       .  S
C1392      S1394   1.801       .  S
S1393      H1396   1.406       .  S
S1394      H1395   1.407       .  S
C1399      C1910   1.416       .  A
C1399      C1404   1.435   1_565  A
C1400      C1909   1.417       .  A
C1400      C1401   1.415       .  A
C1400      H1409   1.080       .  S
C1401      C1912   1.422       .  A
C1401      S1405   1.799       .  S
C1402      C1911   1.422       .  A
C1402      C1403   1.409   1_565  A
C1403      C1404   1.416       .  A
C1403      H1410   1.082       .  S
C1404      S1406   1.809       .  S
S1405      H1408   1.408       .  S
S1406      H1407   1.407       .  S
C1411      C1922   1.405   1_545  A
C1411      C1416   1.422       .  A
C1412      C1921   1.404       .  A
C1412      C1413   1.399       .  A
C1412      H1421   1.084       .  S
C1413      C1924   1.412       .  A
C1413      S1417   1.804       .  S
C1414      C1923   1.412   1_545  A
C1414      C1415   1.397       .  A
C1415      C1416   1.398       .  A
C1415      H1422   1.084       .  S
C1416      S1418   1.798       .  S
S1417      H1420   1.406       .  S
S1418      H1419   1.399       .  S
C1423      C1934   1.403   1_545  A
C1423      C1428   1.409       .  A
C1424      C1933   1.402       .  A
C1424      C1425   1.400       .  A
C1424      H1433   1.084       .  S
C1425      C1936   1.418       .  A
C1425      S1429   1.802       .  S
C1426      C1935   1.417   1_545  A
C1426      C1427   1.408       .  A
C1427      C1428   1.397       .  A
C1427      H1434   1.083       .  S
C1428      S1430   1.805       .  S
S1429      H1432   1.408       .  S
S1430      H1431   1.403       .  S
C1435      C1436   1.394       .  A
C1435      C1950   1.418       .  A
C1436      C1437   1.415       .  A
C1436      H1445   1.083       .  S
C1437      C1438   1.445       .  A
C1437      S1441   1.803       .  S
C1438      C1949   1.417       .  A
C1439      C1948   1.416       .  A
C1439      C1440   1.412       .  A
C1439      H1446   1.078       .  S
C1440      C1945   1.415       .  A
C1440      S1442   1.800       .  S
S1441      H1444   1.406       .  S
S1442      H1443   1.404       .  S
C1447      C1448   1.434   1_565  A
C1447      C1962   1.437       .  A
C1448      C1449   1.405       .  A
C1448      H1457   1.077       .  S
C1449      C1450   1.405   1_545  A
C1449      S1453   1.805       .  S
C1450      C1961   1.408       .  A
C1451      C1960   1.408       .  A
C1451      C1452   1.422       .  A
C1451      H1458   1.082       .  S
C1452      C1957   1.436       .  A
C1452      S1454   1.806       .  S
S1453      H1456   1.407       .  S
S1454      H1455   1.406       .  S
C1459      C1460   1.407       .  A
C1459      C1974   1.413       .  A
C1460      C1461   1.400       .  A
C1460      H1469   1.084       .  S
C1461      C1462   1.413       .  A
C1461      S1465   1.808       .  S
C1462      C1973   1.405       .  A
C1463      C1972   1.405       .  A
C1463      C1464   1.403       .  A
C1463      H1470   1.083       .  S
C1464      C1969   1.413       .  A
C1464      S1466   1.808       .  S
S1465      H1468   1.399       .  S
S1466      H1467   1.407       .  S
C1471      C1982   1.405       .  A
C1471      C1476   1.411       .  A
C1472      C1981   1.404       .  A
C1472      C1473   1.405       .  A
C1472      H1481   1.083       .  S
C1473      C1984   1.414       .  A
C1473      S1477   1.808       .  S
C1474      C1983   1.412       .  A
C1474      C1475   1.409       .  A
C1475      C1476   1.401       .  A
C1475      H1482   1.084       .  S
C1476      S1478   1.805       .  S
S1477      H1480   1.407       .  S
S1478      H1479   1.404       .  S
C1483      C1994   1.405   1_545  A
C1483      C1488   1.421       .  A
C1484      C1993   1.406       .  A
C1484      C1485   1.398       .  A
C1484      H1493   1.084       .  S
C1485      C1996   1.412       .  A
C1485      S1489   1.804       .  S
C1486      C1995   1.410   1_545  A
C1486      C1487   1.398       .  A
C1487      C1488   1.398       .  A
C1487      H1494   1.084       .  S
C1488      S1490   1.799       .  S
S1489      H1492   1.406       .  S
S1490      H1491   1.408       .  S
C1495      C1496   1.408       .  A
C1495      C2010   1.415   1_545  A
C1496      C1497   1.400       .  A
C1496      H1505   1.083       .  S
C1497      C1498   1.410       .  A
C1497      S1501   1.804       .  S
C1498      C2009   1.407   1_545  A
C1499      C2008   1.405       .  A
C1499      C1500   1.399       .  A
C1499      H1506   1.084       .  S
C1500      C2005   1.413       .  A
C1500      S1502   1.803       .  S
S1501      H1504   1.405       .  S
S1502      H1503   1.408       .  S
C1507      C1508   1.407       .  A
C1507      C2022   1.413       .  A
C1508      C1509   1.398       .  A
C1508      H1517   1.084       .  S
C1509      C2020   1.410       .  A
C1509      S1513   1.804       .  S
C1510      C2019   1.410       .  A
C1510      C1511   1.405       .  A
C1511      C1512   1.398       .  A
C1511      H1518   1.084       .  S
C1512      C2017   1.412       .  A
C1512      S1514   1.803       .  S
S1513      H1516   1.405       .  S
S1514      H1515   1.407       .  S
C1519      C1520   1.405       .  A
C1519      C2034   1.414       .  A
C1520      C1521   1.400       .  A
C1520      H1529   1.084       .  S
C1521      C2032   1.413       .  A
C1521      S1525   1.802       .  S
C1522      C2031   1.413       .  A
C1522      C1523   1.409       .  A
C1523      C1524   1.401       .  A
C1523      H1530   1.084       .  S
C1524      C2029   1.411       .  A
C1524      S1526   1.804       .  S
S1525      H1528   1.408       .  S
S1526      H1527   1.405       .  S
N1531      C1536   1.352       .  A
N1531      H1563   1.039       .  S
N1532      C1540   1.351       .  A
N1533      C1537   1.351       .  A
N1533      H1564   1.039       .  S
N1534      C1542   1.349       .  A
C1535      C1543   1.388       .  A
C1535      C1551   1.410       .  A
C1536      C1552   1.411       .  A
C1536      C1544   1.387       .  A
C1537      C1545   1.388       .  A
C1537      C1554   1.412       .  A
C1538      C1553   1.410       .  A
C1538      C1546   1.386       .  A
C1539      C1551   1.412       .  A
C1539      C1547   1.386       .  A
C1540      C1554   1.416       .  A
C1540      C1548   1.386       .  A
C1541      C1549   1.386       .  A
C1541      C1552   1.410       .  A
C1542      C1550   1.386       .  A
C1542      C1553   1.409       .  A
C1543      H1555   1.082       .  S
C1544      H1556   1.082       .  S
C1545      H1557   1.082       .  S
C1546      H1558   1.083       .  S
C1547      H1559   1.082       .  S
C1548      H1560   1.082       .  S
C1549      H1561   1.082       .  S
C1550      H1562   1.082       .  S
C1551      C2008   1.484       .  S
C1552      C1996   1.482       .  S
C1553      C2020   1.484       .  S
C1554      C2029   1.488       .  S
O1565     Ni1573   1.917       .  S
O1566     Ni1573   1.919   1_544  S
O1567     Ni1573   1.917   1_545  S
O1568     Ni1573   1.916   1_554  S
O1569     Ni1574   1.910   1_554  S
O1569      C1578   1.280       .  A
O1570     Ni1574   1.911       .  S
O1570      C1577   1.281       .  A
O1571     Ni1574   1.917   1_554  S
O1571      C1576   1.282       .  A
O1572     Ni1574   1.917       .  S
O1572      C1575   1.282       .  A
C1575      C1969   1.483       .  S
C1576      C2032   1.485       .  S
C1577      C1984   1.486       .  S
C1578      C2017   1.477       .  S
O1579     Ni1587   1.921       .  S
O1580     Ni1587   1.947       .  S
O1581     Ni1587   1.940       .  S
O1582     Ni1587   1.913       .  S
O1583     Ni1588   1.915       .  S
O1583      C1592   1.280       .  A
O1584     Ni1588   1.935       .  S
O1584      C1591   1.286       .  A
O1585     Ni1588   1.936       .  S
O1585      C1590   1.283       .  A
O1586     Ni1588   1.914       .  S
O1586      C1589   1.281       .  A
C1589      C2005   1.480       .  S
C1590      C1945   1.500       .  S
C1591      C1960   1.509       .  S
C1592      C1993   1.486       .  S
N1593      C1597   1.351       .  A
N1593      H1625   1.040       .  S
N1594      C1601   1.349       .  A
N1594      C1602   1.348       .  A
N1595      C1599   1.351       .  A
N1595      H1626   1.040       .  S
N1596      C1603   1.349       .  A
N1596      C1604   1.348       .  A
C1597      C1605   1.387       .  A
C1597      C1613   1.410       .  A
C1598      C1614   1.410       .  A
C1598      C1606   1.386       .  A
C1599      C1607   1.389       .  A
C1599      C1616   1.411       .  A
C1600      C1615   1.409       .  A
C1600      C1608   1.387       .  A
C1601      C1613   1.412       .  A
C1601      C1609   1.386       .  A
C1602      C1616   1.411       .  A
C1602      C1610   1.386       .  A
C1603      C1611   1.385       .  A
C1603      C1614   1.411       .  A
C1604      C1612   1.386       .  A
C1604      C1615   1.411       .  A
C1605      H1617   1.082       .  S
C1606      H1618   1.082       .  S
C1607      H1619   1.081       .  S
C1608      H1620   1.082       .  S
C1609      C1610   1.383       .  A
C1609      H1621   1.082       .  S
C1610      H1622   1.082       .  S
C1611      C1612   1.381       .  A
C1611      H1623   1.082       .  S
C1612      H1624   1.082       .  S
C1613      C1981   1.484       .  S
C1614      C1972   1.485       .  S
C1615      C1924   1.479       .  S
C1616      C1933   1.481       .  S
O1627     Ni1635   1.938       .  S
O1627      C1637   1.285       .  A
O1628     Ni1635   1.919       .  S
O1628      C1638   1.283       .  A
O1629     Ni1635   1.912       .  S
O1629      C1639   1.279       .  A
O1630     Ni1635   1.931       .  S
O1630      C1640   1.285       .  A
O1631     Ni1636   1.941       .  S
O1632     Ni1636   1.918       .  S
O1633     Ni1636   1.915       .  S
O1634     Ni1636   1.943       .  S
C1637      C1897   1.518       .  S
C1638      C1936   1.488       .  S
C1639      C1921   1.484       .  S
C1640      C1912   1.522       .  S
O1641     Ni1649   1.938       .  S
O1641      C1651   1.287       .  A
O1642     Ni1649   1.916       .  S
O1642      C1652   1.282       .  A
O1643     Ni1649   1.914       .  S
O1643      C1653   1.280       .  A
O1644     Ni1649   1.938       .  S
O1644      C1654   1.285       .  A
O1645     Ni1650   1.940       .  S
O1646     Ni1650   1.916       .  S
O1647     Ni1650   1.915       .  S
O1648     Ni1650   1.939       .  S
C1651      C1873   1.515       .  S
C1652      C1861   1.479       .  S
C1653      C1852   1.485       .  S
C1654      C1885   1.523       .  S
N1655      C1659   1.350       .  A
N1655      H1687   1.039       .  S
N1656      C1663   1.350       .  A
N1656      C1664   1.350       .  A
N1657      C1661   1.351       .  A
N1657      H1688   1.039       .  S
N1658      C1665   1.349       .  A
N1658      C1666   1.349       .  A
C1659      C1667   1.387       .  A
C1659      C1675   1.410       .  A
C1660      C1676   1.411       .  A
C1660      C1668   1.387       .  A
C1661      C1678   1.410       .  A
C1662      C1677   1.410       .  A
C1663      C1675   1.411       .  A
C1663      C1671   1.385       .  A
C1664      C1678   1.412       .  A
C1664      C1672   1.386       .  A
C1665      C1673   1.386       .  A
C1665      C1676   1.412       .  A
C1666      C1674   1.386       .  A
C1666      C1677   1.412       .  A
C1667      H1679   1.082       .  S
C1668      H1680   1.082       .  S
C1669      H1681   1.082       .  S
C1670      H1682   1.082       .  S
C1671      C1672   1.380       .  A
C1671      H1683   1.082       .  S
C1672      H1684   1.082       .  S
C1673      C1674   1.381       .  A
C1673      H1685   1.082       .  S
C1674      H1686   1.082       .  S
C1675      C1837   1.483       .  S
C1676      C1825   1.483       .  S
O1689     Ni1697   1.912       .  S
O1689      C1699   1.281   1_655  A
O1690     Ni1697   1.911       .  S
O1690      C1700   1.280   1_655  A
O1691     Ni1697   1.917       .  S
O1691      C1701   1.282   1_655  A
O1692     Ni1697   1.919       .  S
O1692      C1702   1.283   1_655  A
O1693     Ni1698   1.910       .  S
O1694     Ni1698   1.909       .  S
O1695     Ni1698   1.919       .  S
O1696     Ni1698   1.916       .  S
C1699      C1828   1.481   1_455  S
C1700      C1813   1.482       .  S
C1701      C1840   1.482   1_455  S
C1702      C1801   1.487       .  S
C1703      C1888   1.604       .  S
C1703      C1909   1.593       .  S
N1704      C1709   1.350       .  A
N1704      H1736   1.040       .  S
N1705      C1712   1.349       .  A
N1705      C1713   1.350       .  A
N1706      C1711   1.351       .  A
N1706      H1737   1.039       .  S
N1707      C1714   1.348       .  A
N1707      C1715   1.349       .  A
C1708      C1716   1.388       .  A
C1708      C1724   1.411       .  A
C1709      C1725   1.410       .  A
C1709      C1717   1.387       .  A
C1710      C1718   1.386       .  A
C1710      C1727   1.409       .  A
C1711      C1726   1.410       .  A
C1711      C1719   1.387       .  A
C1712      C1724   1.411       .  A
C1712      C1720   1.386       .  A
C1713      C1727   1.412       .  A
C1713      C1721   1.386       .  A
C1714      C1722   1.386       .  A
C1714      C1725   1.411       .  A
C1715      C1723   1.386       .  A
C1715      C1726   1.411       .  A
C1716      H1728   1.082       .  S
C1717      H1729   1.082       .  S
C1718      H1730   1.082       .  S
C1719      H1731   1.082       .  S
C1720      C1721   1.381       .  A
C1720      H1732   1.082       .  S
C1721      H1733   1.082       .  S
C1722      C1723   1.381       .  A
C1722      H1734   1.082       .  S
C1723      H1735   1.082       .  S
C1724      C1777   1.481       .  S
C1725      C1789   1.481       .  S
C1726      C1816   1.482       .  S
C1727      C1804   1.484       .  S
O1738     Ni1746   1.921       .  S
O1739     Ni1746   1.945       .  S
O1739      C1749   1.287       .  A
O1740     Ni1746   1.935       .  S
O1740      C1750   1.284       .  A
O1741     Ni1746   1.916       .  S
O1742     Ni1747   1.920       .  S
O1742      C1751   1.283   1_655  A
O1743     Ni1747   1.940       .  S
O1744     Ni1747   1.931       .  S
O1745     Ni1747   1.907       .  S
O1745      C1748   1.279   1_655  A
C1748      C1780   1.485       .  S
C1749      C1768   1.498       .  S
C1750      C1756   1.509       .  S
C1751      C1792   1.489       .  S
C1752      C1765   1.604       .  S
C1752      C1957   1.615       .  S
C1753      C1754   1.419       .  A
C1754      C1755   1.411       .  A
C1754      H1763   1.083       .  S
C1755      C1756   1.415       .  A
C1755      S1759   1.799       .  S
C1757      C1758   1.415       .  A
C1757      H1764   1.083       .  S
C1758      S1760   1.811       .  S
S1759      H1762   1.406       .  S
S1760      H1761   1.408       .  S
C1765      C1770   1.443       .  A
C1766      C1767   1.406       .  A
C1766      H1775   1.083       .  S
C1767      S1771   1.808       .  S
C1768      C1769   1.405       .  A
C1769      C1770   1.417       .  A
C1769      H1776   1.085       .  S
C1770      S1772   1.805       .  S
S1771      H1774   1.403   1_655  S
S1772      H1773   1.396       .  S
C1777      C1778   1.401       .  A
C1777      C1782   1.410       .  A
C1778      C1779   1.396       .  A
C1778      H1787   1.084   1_455  S
C1779      C1780   1.417       .  A
C1779      S1783   1.803   1_455  S
C1780      C1781   1.408       .  A
C1781      C1782   1.400       .  A
C1782      S1784   1.805       .  S
S1783      H1786   1.408       .  S
C1789      C1794   1.412   1_455  A
C1790      C1791   1.397       .  A
C1790      H1799   1.084       .  S
C1791      S1795   1.799       .  S
C1792      C1793   1.406   1_455  A
C1793      C1794   1.400       .  A
C1793      H1800   1.084       .  S
C1794      S1796   1.805       .  S
S1795      H1798   1.400       .  S
S1796      H1797   1.405       .  S
C1801      C1802   1.404       .  A
C1802      C1803   1.399       .  A
C1802      H1811   1.084   1_455  S
C1803      C1804   1.412       .  A
C1803      S1807   1.805   1_455  S
C1805      C1806   1.399       .  A
C1805      H1812   1.084       .  S
C1806      S1808   1.800       .  S
S1807      H1810   1.405       .  S
S1808      H1809   1.408       .  S
C1813      C1818   1.415   1_455  A
C1814      C1815   1.400       .  A
C1814      H1823   1.083       .  S
C1815      S1819   1.803       .  S
C1816      C1817   1.402       .  A
C1817      C1818   1.398   1_455  A
C1817      H1824   1.084   1_455  S
C1818      S1820   1.803       .  S
S1819      H1822   1.405       .  S
S1820      H1821   1.408       .  S
C1825      C1830   1.411       .  A
C1826      C1827   1.398       .  A
C1826      H1835   1.084       .  S
C1827      S1831   1.802       .  S
C1828      C1829   1.409       .  A
C1829      C1830   1.401       .  A
C1829      H1836   1.084       .  S
C1830      S1832   1.807       .  S
S1831      H1834   1.408       .  S
S1832      H1833   1.402       .  S
C1837      C1842   1.409       .  A
C1838      C1839   1.403       .  A
C1838      H1847   1.083       .  S
C1839      S1843   1.808       .  S
C1840      C1841   1.408       .  A
C1841      C1842   1.400       .  A
C1841      H1848   1.084       .  S
C1842      S1844   1.805       .  S
S1843      H1846   1.407       .  S
S1844      H1845   1.404       .  S
C1849      C1850   1.403       .  A
C1850      C1851   1.399       .  A
C1850      H1859   1.084       .  S
C1851      C1852   1.415       .  A
C1851      S1855   1.803       .  S
C1853      C1854   1.399       .  A
C1853      H1860   1.084       .  S
C1854      S1856   1.804       .  S
S1855      H1858   1.408       .  S
S1856      H1857   1.404       .  S
C1861      C1862   1.404       .  A
C1862      C1863   1.397       .  A
C1862      H1871   1.084       .  S
C1863      C1864   1.412       .  A
C1863      S1867   1.804       .  S
C1865      C1866   1.400       .  A
C1865      H1872   1.084       .  S
C1866      S1868   1.799       .  S
S1867      H1870   1.405       .  S
S1868      H1869   1.408       .  S
C1873      C1874   1.402       .  A
C1874      C1875   1.413       .  A
C1874      H1883   1.084       .  S
C1875      C1876   1.447       .  A
C1875      S1879   1.813       .  S
C1877      C1878   1.414       .  A
C1877      H1884   1.076       .  S
C1878      S1880   1.798       .  S
S1879      H1882   1.386       .  S
S1880      H1881   1.408       .  S
C1885      C1890   1.423       .  A
C1886      C1887   1.416       .  A
C1886      H1895   1.082       .  S
C1887      S1891   1.811       .  S
C1888      C1889   1.416       .  A
C1889      C1890   1.414       .  A
C1889      H1896   1.071       .  S
C1890      S1892   1.801       .  S
S1891      H1894   1.407       .  S
S1892      H1893   1.407       .  S
C1897      C1902   1.421       .  A
C1898      C1899   1.418       .  A
C1898      H1907   1.082       .  S
C1899      S1903   1.807       .  S
C1900      C1901   1.417       .  A
C1901      C1902   1.411       .  A
C1901      H1908   1.078       .  S
C1902      S1904   1.801       .  S
S1903      H1906   1.407       .  S
S1904      H1905   1.407       .  S
C1909      C1914   1.436       .  A
C1910      C1911   1.413       .  A
C1910      H1919   1.079       .  S
C1911      S1915   1.799       .  S
C1912      C1913   1.408       .  A
C1913      C1914   1.414       .  A
C1913      H1920   1.082       .  S
C1914      S1916   1.809       .  S
S1915      H1918   1.408       .  S
S1916      H1917   1.407       .  S
C1921      C1926   1.421       .  A
C1922      C1923   1.399       .  A
C1922      H1931   1.084       .  S
C1923      S1927   1.804       .  S
C1924      C1925   1.396       .  A
C1925      C1926   1.395       .  A
C1925      H1932   1.084       .  S
C1926      S1928   1.798       .  S
S1927      H1930   1.406       .  S
S1928      H1929   1.398       .  S
C1933      C1938   1.409       .  A
C1934      C1935   1.400       .  A
C1934      H1943   1.084       .  S
C1935      S1939   1.803       .  S
C1936      C1937   1.408       .  A
C1937      C1938   1.397       .  A
C1937      H1944   1.083       .  S
C1938      S1940   1.803       .  S
S1939      H1942   1.408       .  S
S1940      H1941   1.405       .  S
C1945      C1946   1.394       .  A
C1946      C1947   1.414       .  A
C1946      H1955   1.082       .  S
C1947      C1948   1.445       .  A
C1947      S1951   1.805       .  S
C1949      C1950   1.417       .  A
C1949      H1956   1.079   1_565  S
C1950      S1952   1.800   1_565  S
S1951      H1954   1.406       .  S
S1952      H1953   1.404   1_545  S
C1957      C1958   1.435       .  A
C1958      C1959   1.404       .  A
C1958      H1967   1.076       .  S
C1959      C1960   1.405       .  A
C1959      S1963   1.805       .  S
C1961      C1962   1.423       .  A
C1961      H1968   1.082       .  S
C1962      S1964   1.805       .  S
S1963      H1966   1.407       .  S
S1964      H1965   1.406       .  S
C1969      C1970   1.408       .  A
C1970      C1971   1.399       .  A
C1970      H1979   1.084       .  S
C1971      C1972   1.410       .  A
C1971      S1975   1.805       .  S
C1973      C1974   1.403       .  A
C1973      H1980   1.083   1_545  S
C1974      S1976   1.808   1_545  S
S1975      H1978   1.404       .  S
S1976      H1977   1.407       .  S
C1981      C1986   1.409       .  A
C1982      C1983   1.402       .  A
C1982      H1991   1.083   1_545  S
C1983      S1987   1.807   1_545  S
C1984      C1985   1.409       .  A
C1985      C1986   1.398       .  A
C1985      H1992   1.084       .  S
C1986      S1988   1.804       .  S
S1987      H1990   1.407       .  S
S1988      H1989   1.403       .  S
C1993      C1998   1.421       .  A
C1994      C1995   1.396       .  A
C1994      H2003   1.084       .  S
C1995      S1999   1.804       .  S
C1996      C1997   1.398       .  A
C1997      C1998   1.399       .  A
C1997      H2004   1.084       .  S
C1998      S2000   1.799       .  S
S1999      H2002   1.406       .  S
S2000      H2001   1.408       .  S
C2005      C2006   1.408       .  A
C2006      C2007   1.399       .  A
C2006      H2015   1.083       .  S
C2007      C2008   1.410       .  A
C2007      S2011   1.805       .  S
C2009      C2010   1.403       .  A
C2009      H2016   1.084       .  S
C2010      S2012   1.803       .  S
S2011      H2014   1.405       .  S
S2012      H2013   1.407       .  S
C2017      C2018   1.408       .  A
C2018      C2019   1.399       .  A
C2018      H2027   1.084       .  S
C2019      S2023   1.805       .  S
C2020      C2021   1.405       .  A
C2021      C2022   1.399       .  A
C2021      H2028   1.084   1_545  S
C2022      S2024   1.803   1_545  S
S2023      H2026   1.404       .  S
S2024      H2025   1.407       .  S
C2029      C2030   1.406       .  A
C2030      C2031   1.400       .  A
C2030      H2039   1.084   1_545  S
C2031      S2035   1.803   1_545  S
C2032      C2033   1.408       .  A
C2033      C2034   1.402       .  A
C2033      H2040   1.084       .  S
C2034      S2036   1.808       .  S
S2035      H2038   1.407       .  S
S2036      H2037   1.400       .  S
