geometry optimzed in LAMMPS
_audit_creation_date              2020-11-30 
_audit_creation_method            'lammps2cif' 
_symmetry_space_group_name_H-M    'P1' 
_symmetry_Int_Tables_number       1 
_symmetry_cell_setting            triclinic 
loop_ 
_symmetry_equiv_pos_as_xyz 
  x,y,z 
_cell_length_a                    48.5054442817291 
_cell_length_b                    42.19222056984164 
_cell_length_c                    28.571593276410105 
_cell_angle_alpha                 90.2567096645877 
_cell_angle_beta                  89.5733720379513 
_cell_angle_gamma                 90.10035600047532 
loop_ 
_atom_site_label 
_atom_site_type_symbol 
_atom_site_fract_x 
_atom_site_fract_y 
_atom_site_fract_z 
_atom_site_charge 
C1          C  0.42762076  0.43108242  0.86005113    -0.02660
O2          O  0.48789215  0.48619159  0.42331006    -0.75460
O3          O  0.46160170  0.46257814  0.48028551    -0.54370
C4          C  0.48150855  0.48072181  0.46566722     0.78270
O5          O  0.38376296  0.48970257  0.27177475    -0.60060
O6          O  0.40907760  0.46275303  0.21651277    -0.53090
C7          C  0.39187476  0.48382716  0.22956725     0.70280
O8          O  0.37521452  0.48952217  0.43247314    -0.74620
O9          O  0.39701474  0.46248052  0.49026822    -0.55190
C10         C  0.37931557  0.48302250  0.47607954     0.76280
O11         O  0.48468651  0.48294451  0.27192103    -0.59770
O12         O  0.46188973  0.45373195  0.21693137    -0.52890
C13         C  0.47950496  0.47475227  0.22952179     0.72880
Zr14       Zr  0.47042755  0.46945001  0.35096315     2.54710
O15         O  0.46910229  0.02712671  0.34941676    -0.80330
O16         O  0.02045721  0.46520702  0.34563848    -0.93750
Zr17       Zr  0.38975728  0.47407792  0.35277109     2.64680
O18         O  0.38584207  0.03133022  0.35925831    -0.98700
O19         O  0.33978669  0.47050782  0.34640065    -0.80760
O20         O  0.43002932  0.47336546  0.39852289    -0.84120
O21         O  0.43053430  0.47150216  0.30662143    -2.18830
O22         O  0.48913841  0.36610120  0.28907198    -0.67510
O23         O  0.46624041  0.39111846  0.23021824    -0.52080
C24         C  0.48590844  0.37419752  0.24670939     0.71260
O25         O  0.36816532  0.36447037  0.42135674    -0.60420
O26         O  0.39184103  0.39093708  0.47874853    -0.52400
C27         C  0.37309875  0.37141797  0.46375280     0.73060
O28         O  0.36804951  0.37061380  0.27147186    -0.71820
O29         O  0.39529678  0.39280655  0.21574327    -0.50490
C30         C  0.37381174  0.37654832  0.22844782     0.74440
O31         O  0.47947319  0.36227960  0.43755205    -0.67140
O32         O  0.45730571  0.39218863  0.49257466    -0.54340
C33         C  0.47477888  0.37048333  0.48009551     0.72830
Zr34       Zr  0.46581434  0.37703621  0.35969541     2.77540
O35         O  0.45807952  0.32080790  0.35978660    -0.97890
O36         O  0.01554747  0.37214993  0.36801842    -0.78710
Zr37       Zr  0.38574408  0.38163206  0.34918699     2.70070
O38         O  0.38440370  0.32410651  0.34307524    -0.79960
O39         O  0.33605583  0.38872689  0.35536712    -0.99050
Zr40       Zr  0.42703354  0.42677139  0.44574530     2.21500
Zr41       Zr  0.42964573  0.42297212  0.26255648     2.11130
O42         O  0.42750747  0.37594568  0.30769432    -2.47730
O43         O  0.42411371  0.37911064  0.40113622    -0.79750
O44         O  0.46933675  0.42151584  0.31015127    -0.71950
O45         O  0.38701095  0.42774906  0.39732786    -2.32910
O46         O  0.46846266  0.42464976  0.40108090    -2.29120
O47         O  0.38740368  0.42800695  0.30469235    -0.73710
H48         H  0.43253669  0.49008699  0.28730966     0.78290
H49         H  0.37042098  0.42860476  0.41618169     0.79370
H50         H  0.42744177  0.35725741  0.28803357     0.81600
H51         H  0.48458046  0.42399187  0.42068215     0.79210
H52         H  0.33332879  0.46327323  0.37752862     0.42240
H53         H  0.33132511  0.40345314  0.32979616     0.41210
H54         H  0.39844759  0.31675871  0.36551395     0.40890
H55         H  0.45508166  0.31615909  0.32625857     0.38820
H56         H  0.02293690  0.39310352  0.35869387     0.41960
H57         H  0.02602045  0.45373273  0.37419843     0.36740
H58         H  0.45606551  0.03310009  0.37477163     0.42860
H59         H  0.40464215  0.03924377  0.35239886     0.39270
H60         H  0.47655495  0.31223917  0.36688998     0.44190
H61         H  0.02728086  0.48711226  0.35038867     0.42910
H62         H  0.37456318  0.03773948  0.33218618     0.43050
H63         H  0.32817777  0.36805763  0.34579366     0.43410
O64         O  0.48491127  0.23984019  0.92393350    -0.75460
O65         O  0.46016013  0.21750086  0.98363310    -0.54370
C66         C  0.47899176  0.23541318  0.96662937     0.78270
O67         O  0.36744908  0.23291981  0.79399919    -0.60060
O68         O  0.39167007  0.20744359  0.73612925    -0.53090
C69         C  0.37260738  0.22610486  0.75140853     0.70280
O70         O  0.37134497  0.23209108  0.94660343    -0.74620
O71         O  0.39899367  0.20912140  0.00057620    -0.55190
C72         C  0.37813770  0.22597976  0.98895880     0.76280
O73         O  0.48452469  0.23069220  0.77413011    -0.59770
O74         O  0.45673059  0.20498044  0.72251610    -0.52890
C75         C  0.47774440  0.22249149  0.73258198     0.72880
Zr76       Zr  0.46732849  0.22308775  0.85261700     2.54710
O77         O  0.46452132  0.28050714  0.84658299    -0.80330
O78         O  0.01754738  0.22315566  0.84651023    -0.93750
Zr79       Zr  0.38648196  0.22054426  0.86730333     2.64680
O80         O  0.38863980  0.27815141  0.87073079    -0.98700
O81         O  0.33626451  0.22151447  0.86920251    -0.80760
O82         O  0.42894148  0.22523714  0.90532255    -0.84120
O83         O  0.42480785  0.22257554  0.81414102    -2.18830
O84         O  0.48678234  0.11995048  0.79058331    -0.67510
O85         O  0.45880553  0.14054243  0.73435548    -0.52080
C86         C  0.47974668  0.12487954  0.74871047     0.71260
O87         O  0.39710076  0.10335764  0.94300348    -0.60420
O88         O  0.40701757  0.14096145  0.99804358    -0.52400
C89         C  0.39711097  0.11437264  0.98507122     0.73060
O90         O  0.37420076  0.11277568  0.78634845    -0.71820
O91         O  0.39503508  0.14005952  0.72763762    -0.50490
C92         C  0.37726715  0.11981917  0.74253524     0.74440
O93         O  0.48382078  0.11810402  0.94250518    -0.67140
O94         O  0.46280211  0.14943222  0.99722046    -0.54340
C95         C  0.47986320  0.12789686  0.98450827     0.72830
Zr96       Zr  0.46926821  0.13060609  0.86443570     2.77540
O97         O  0.47055980  0.07287865  0.86286510    -0.97890
O98         O  0.01934624  0.13346210  0.86945946    -0.78710
Zr99       Zr  0.38889417  0.12704170  0.86653093     2.70070
O100        O  0.37709833  0.07099723  0.86316296    -0.79960
O101        O  0.34016979  0.13302088  0.88468509    -0.99050
Zr102      Zr  0.43040054  0.17874403  0.95144241     2.21500
Zr103      Zr  0.42553625  0.17377990  0.77238103     2.11130
O104        O  0.42845432  0.12658291  0.81854774    -2.47730
O105        O  0.42989071  0.12971219  0.91050959    -0.79750
O106        O  0.46751652  0.17472136  0.81359285    -0.71950
O107        O  0.38742544  0.17408301  0.91238486    -2.32910
O108        O  0.47059335  0.17905312  0.90374365    -2.29120
O109        O  0.38590305  0.17338004  0.82167127    -0.73710
H110        H  0.42368826  0.24053703  0.79339299     0.78290
H111        H  0.37216978  0.17285314  0.93421801     0.79370
H112        H  0.42883968  0.10775369  0.79918707     0.81600
H113        H  0.48728392  0.17993008  0.92192432     0.79210
H114        H  0.33090628  0.20706705  0.89493343     0.42240
H115        H  0.33434191  0.15152258  0.86605624     0.41210
H116        H  0.39504774  0.05996738  0.86522946     0.40890
H117        H  0.46107966  0.06672164  0.83362451     0.38820
H118        H  0.02481597  0.14992288  0.84659126     0.41960
H119        H  0.02397990  0.20967173  0.87250018     0.36740
H120        H  0.45525956  0.28739627  0.87590239     0.42860
H121        H  0.39782193  0.28446093  0.84113658     0.39270
H122        H  0.49017672  0.06763112  0.85696936     0.44190
H123        H  0.02327534  0.24491029  0.85527738     0.42910
H124        H  0.36927909  0.28507331  0.86709809     0.43050
H125        H  0.33140987  0.11472728  0.86884268     0.43410
O126        O  0.21004565  0.49255765  0.95659106    -0.75460
O127        O  0.24475840  0.46201800  0.92565234    -0.54370
C128        C  0.23408692  0.48139483  0.95712142     0.78270
O129        O  0.13158086  0.36880181  0.94243879    -0.60060
O130        O  0.09539186  0.39003777  0.90234009    -0.53090
C131        C  0.10601090  0.37316831  0.93481905     0.70280
O132        O  0.22206963  0.37300143  0.95393489    -0.74620
O133        O  0.25691200  0.39629424  0.91204264    -0.55190
C134        C  0.24769416  0.37910430  0.94658660     0.76280
O135        O  0.12836179  0.49475156  0.93555042    -0.59770
O136        O  0.09664364  0.45732858  0.91727866    -0.52890
C137        C  0.10545641  0.48086012  0.94285221     0.72880
Zr138      Zr  0.17251767  0.47406165  0.91613602     2.54710
O139        O  0.17192589  0.46125830  0.99919289    -0.80330
O140        O  0.17294712  0.03136342  0.91357091    -0.93750
Zr141      Zr  0.17713018  0.38237818  0.91984275     2.64680
O142        O  0.17698229  0.38422284  0.00502342    -0.98700
O143        O  0.17943132  0.32475506  0.91692778    -0.80760
O144        O  0.20185735  0.42982378  0.91853536    -0.84120
O145        O  0.14737242  0.42702989  0.91966157    -2.18830
O146        O  0.13130148  0.48651014  0.76030806    -0.67510
O147        O  0.09552881  0.46367957  0.80065811    -0.52080
C148        C  0.10582992  0.48166573  0.76864096     0.71260
O149        O  0.22011098  0.36872629  0.75951763    -0.60420
O150        O  0.25545024  0.39233945  0.79969219    -0.52400
C151        C  0.24551542  0.37409421  0.76727941     0.73060
O152        O  0.13093346  0.36710968  0.75362996    -0.71820
O153        O  0.09568511  0.39238633  0.79153949    -0.50490
C154        C  0.10522592  0.37345183  0.75915074     0.74440
O155        O  0.21971453  0.48365091  0.74954456    -0.67140
O156        O  0.25534312  0.46432582  0.79272716    -0.54340
C157        C  0.24537832  0.48031083  0.75748724     0.72830
Zr158      Zr  0.17611779  0.47247441  0.78418794     2.77540
O159        O  0.17629894  0.47095558  0.69895173    -0.97890
O160        O  0.17811557  0.03001192  0.78995490    -0.78710
Zr161      Zr  0.17520986  0.38071537  0.78669420     2.70070
O162        O  0.17745241  0.37732535  0.70167473    -0.79960
O163        O  0.17212069  0.32410671  0.79954953    -0.99050
Zr164      Zr  0.23202678  0.42965117  0.85371672     2.21500
Zr165      Zr  0.11909791  0.42648748  0.85144601     2.11130
O166        O  0.14828261  0.42660356  0.78360725    -2.47730
O167        O  0.20306416  0.42667222  0.78647155    -0.79750
O168        O  0.14565438  0.47410903  0.84888095    -0.71950
O169        O  0.20493247  0.38157066  0.85246023    -2.32910
O170        O  0.20349633  0.47591620  0.85168597    -2.29120
O171        O  0.14760539  0.38000707  0.85406802    -0.73710
H172        H  0.13660900  0.42720821  0.94820938     0.78290
H173        H  0.21659675  0.36304047  0.85283818     0.79370
H174        H  0.13761922  0.42647070  0.75521769     0.81600
H175        H  0.21438489  0.49511342  0.85194713     0.79210
H176        H  0.19793291  0.31992756  0.90391682     0.42240
H177        H  0.16020339  0.32164809  0.82755604     0.41210
H178        H  0.18370640  0.39860902  0.69163978     0.40890
H179        H  0.15912449  0.45978843  0.69013157     0.38820
H180        H  0.16177434  0.03594309  0.80900991     0.41960
H181        H  0.19216997  0.03733359  0.90565217     0.36740
H182        H  0.18735401  0.44635685  0.00415352     0.42860
H183        H  0.15806780  0.39053742  0.01431673     0.39270
H184        H  0.17331258  0.49325202  0.68965744     0.44190
H185        H  0.17037517  0.03780303  0.94664762     0.42910
H186        H  0.17857901  0.36177029  0.01445057     0.43050
H187        H  0.16055343  0.31641873  0.77344020     0.43410
C188        C  0.17646088  0.17317333  0.86600273    -0.02660
C189        C  0.17473501  0.42789538  0.35361358    -0.02660
C190        C  0.43163435  0.17713495  0.34733953    -0.02660
O191        O  0.49301541  0.11836673  0.67327350    -0.75460
O192        O  0.01606312  0.09240698  0.73113049    -0.54370
C193        C  0.99746433  0.11109962  0.71547431     0.78270
O194        O  0.49193316  0.99179889  0.54191616    -0.60060
O195        O  0.01819427  0.01523661  0.48458970    -0.53090
C196        C  0.49848522  0.99688007  0.49948748     0.70280
O197        O  0.48945131  0.00202848  0.69283142    -0.74620
O198        O  0.01723708  0.02539147  0.74686750    -0.55190
C199        C  0.99677475  0.00777378  0.73515880     0.76280
O200        O  0.49699846  0.11541781  0.52474377    -0.59770
O201        O  0.02049909  0.08581608  0.47094012    -0.52890
C202        C  0.00157300  0.10616037  0.48264010     0.72880
Zr203      Zr  0.01333118  0.10380079  0.60235774     2.54710
O204        O  0.46319088  0.10531488  0.59908648    -0.80330
O205        O  0.01803777  0.16124253  0.59982762    -0.93750
Zr206      Zr  0.00714906  0.01182957  0.61408630     2.64680
O207        O  0.45741355  0.01931575  0.61323998    -0.98700
O208        O  0.00306114  0.45536756  0.62745656    -0.80760
O209        O  0.00914943  0.05993794  0.65388004    -0.84120
O210        O  0.01038442  0.05563046  0.56235517    -2.18830
O211        O  0.11054856  0.11381774  0.53861445    -0.67510
O212        O  0.08646346  0.08744178  0.48169956    -0.52080
C213        C  0.10552669  0.10665853  0.49609984     0.71260
O214        O  0.09619936  0.99066664  0.69209437    -0.60420
O215        O  0.07177776  0.01795695  0.74791621    -0.52400
C216        C  0.08905706  0.99688443  0.73462652     0.73060
O217        O  0.10773014  0.99207651  0.53394683    -0.71820
O218        O  0.08611168  0.01949352  0.47596738    -0.50490
C219        C  0.10466513  0.99998476  0.49071415     0.74440
O220        O  0.11045670  0.10860285  0.69115757    -0.67140
O221        O  0.08249038  0.08676023  0.74647842    -0.54340
C222        C  0.10392452  0.10283861  0.73395080     0.72830
Zr223      Zr  0.09333038  0.09792384  0.61303106     2.77540
O224        O  0.14358718  0.09600554  0.61250983    -0.97890
O225        O  0.09104847  0.15479465  0.62495395    -0.78710
Zr226      Zr  0.08803113  0.00461403  0.61128107     2.70070
O227        O  0.13788649  0.00115531  0.61798106    -0.79960
O228        O  0.08325333  0.44721743  0.60736670    -0.99050
Zr229      Zr  0.04929069  0.05632195  0.70024542     2.21500
Zr230      Zr  0.05199999  0.05247290  0.51793324     2.11130
O231        O  0.09159943  0.05116463  0.56698927    -2.47730
O232        O  0.09124675  0.05131810  0.65762463    -0.79750
O233        O  0.05513039  0.10104193  0.56076327    -0.71950
O234        O  0.04741052  0.00794671  0.65760832    -2.32910
O235        O  0.05168884  0.10322196  0.65433557    -2.29120
O236        O  0.04758821  0.00616316  0.56587470    -0.73710
H237        H  0.49436164  0.05577563  0.54251923     0.78290
H238        H  0.04560995  0.48990580  0.67805503     0.79370
H239        H  0.10836239  0.05053949  0.54861290     0.81600
H240        H  0.05196286  0.12193196  0.67394941     0.79210
H241        H  0.01359432  0.45090977  0.65621298     0.42240
H242        H  0.07272112  0.44319173  0.57837679     0.41210
H243        H  0.14377158  0.02297765  0.62605279     0.40890
H244        H  0.14869420  0.08247822  0.58540546     0.38820
H245        H  0.07222800  0.16067835  0.61517966     0.41960
H246        H  0.02118343  0.16775879  0.63270013     0.36740
H247        H  0.45700887  0.08598099  0.61565739     0.42860
H248        H  0.45349164  0.02861708  0.58226196     0.39270
H249        H  0.14962900  0.11761595  0.60369776     0.44190
H250        H  0.49924995  0.16897482  0.59287140     0.42910
H251        H  0.44980266  0.99754966  0.61163423     0.43050
H252        H  0.10206579  0.43942117  0.60018750     0.43410
O253        O  0.49689779  0.36605969  0.02257453    -0.75460
O254        O  0.01384776  0.33324391  0.96627654    -0.54370
C255        C  0.99744748  0.35516789  0.98052216     0.78270
O256        O  0.11377041  0.36373189  0.17165702    -0.60060
O257        O  0.08745328  0.34196662  0.22995255    -0.53090
C258        C  0.10777120  0.35885099  0.21517696     0.70280
O259        O  0.09862646  0.36376954  0.01190917    -0.74620
O260        O  0.06967687  0.34099210  0.95875017    -0.55190
C261        C  0.08942720  0.35921977  0.97028291     0.76280
O262        O  0.50701801  0.37688718  0.17537863    -0.59770
O263        O  0.02098508  0.33926360  0.22711289    -0.52890
C264        C  0.00608620  0.36287326  0.21462919     0.72880
Zr265      Zr  0.01351765  0.35446681  0.10075952     2.54710
O266        O  0.00447692  0.41094572  0.09356661    -0.80090
O267        O  0.46481737  0.34516607  0.11744581    -0.93750
Zr268      Zr  0.09435480  0.35121632  0.09418499     2.64680
O269        O  0.09750193  0.40875253  0.09383502    -0.98700
O270        O  0.14415023  0.34808656  0.08492054    -0.80760
O271        O  0.05247794  0.35321392  0.05204841    -0.84120
O272        O  0.05556932  0.35457812  0.14360814    -2.18830
O273        O  0.49831790  0.25093881  0.18938842    -0.67510
O274        O  0.02751862  0.27373408  0.24159796    -0.52080
C275        C  0.00712186  0.25540209  0.23097199     0.71260
O276        O  0.09077279  0.23563071  0.01456320    -0.60420
O277        O  0.08093168  0.27364497  0.96207497    -0.52400
C278        C  0.09395441  0.24851332  0.97429367     0.73060
O279        O  0.11136083  0.24492790  0.16467702    -0.71820
O280        O  0.09031381  0.27286544  0.22366274    -0.50490
C281        C  0.10806476  0.25282768  0.20739691     0.74440
O282        O  0.48828481  0.25003344  0.04059965    -0.67140
O283        O  0.01688744  0.26592382  0.98123361    -0.54340
C284        C  0.99577917  0.25158784  0.99814144     0.72830
Zr285      Zr  0.01066102  0.26210741  0.10996359     2.77540
O286        O  0.01337737  0.20452886  0.10866396    -0.97890
O287        O  0.46083143  0.26015521  0.12087531    -0.78710
Zr288      Zr  0.09062961  0.25801565  0.09273357     2.70070
O289        O  0.09280526  0.20072040  0.10123693    -0.79960
O290        O  0.13987154  0.26099494  0.07600814    -0.99050
Zr291      Zr  0.04826984  0.30447973  0.00982292     2.21500
Zr292      Zr  0.05589954  0.30728589  0.18978964     2.11130
O293        O  0.05333780  0.25899155  0.14717630    -2.47730
O294        O  0.04770041  0.25762050  0.05554195    -0.79750
O295        O  0.01307479  0.30984529  0.15084752    -0.71950
O296        O  0.09190624  0.30444148  0.04788413    -2.32910
O297        O  0.00917566  0.30685955  0.06020862    -2.29120
O298        O  0.09457483  0.30459113  0.13866933    -0.73710
H299        H  0.05722568  0.37329433  0.16298397     0.78290
H300        H  0.10707790  0.30369732  0.02582481     0.79370
H301        H  0.05388529  0.24077724  0.16752341     0.81600
H302        H  0.49210675  0.30731304  0.04310980     0.79210
H303        H  0.14717055  0.33020118  0.06296855     0.42240
H304        H  0.14708458  0.27621830  0.09939329     0.41210
H305        H  0.07401013  0.19323683  0.09356851     0.40890
H306        H  0.01963628  0.19913953  0.07653952     0.38820
H307        H  0.45633035  0.27928348  0.13959959     0.41960
H308        H  0.45800103  0.33171092  0.09155985     0.36740
H309        H  0.01605935  0.41785968  0.06681975     0.42860
H310        H  0.08822750  0.41531722  0.12326263     0.39270
H311        H  0.49391387  0.19739112  0.10986798     0.44190
H312        H  0.45584154  0.36595715  0.11286268     0.42910
H313        H  0.11725998  0.41332573  0.09918919     0.43050
H314        H  0.14720498  0.24023793  0.08603794     0.43410
O315        O  0.36035539  0.50574114  0.02996628    -0.75460
O316        O  0.39904046  0.02328123  0.05251699    -0.54370
C317        C  0.38580329  0.00645919  0.02295321     0.78270
O318        O  0.26527156  0.10764551  0.00628155    -0.60060
O319        O  0.22921314  0.08172977  0.04045741    -0.53090
C320        C  0.23955729  0.10202247  0.01062978     0.70280
O321        O  0.35426684  0.10058093  0.00483699    -0.74620
O322        O  0.38873975  0.08612644  0.05440807    -0.55190
C323        C  0.37938502  0.09880344  0.01710065     0.76280
O324        O  0.27488523  0.48350557  0.99524590    -0.59770
O325        O  0.23876109  0.01039488  0.02972836    -0.52890
C326        C  0.25002195  0.99224471  0.99708488     0.72880
Zr327      Zr  0.31235435  0.00137371  0.03655202     2.54710
O328        O  0.31573847  0.00542769  0.95159207    -0.80330
O329        O  0.31984465  0.44443384  0.03625377    -0.93750
Zr330      Zr  0.30939470  0.09334415  0.03615274     2.64680
O331        O  0.31003535  0.09271855  0.95086755    -0.98700
O332        O  0.31143482  0.15091821  0.04223373    -0.80760
O333        O  0.33817723  0.04849063  0.03728656    -0.84120
O334        O  0.28353250  0.04648313  0.03469806    -2.18830
O335        O  0.26359815  0.48940250  0.20382068    -0.67510
O336        O  0.22839447  0.01244488  0.16421733    -0.52080
C337        C  0.23800636  0.99567133  0.19940561     0.71260
O338        O  0.34969970  0.11066069  0.20363396    -0.60420
O339        O  0.38578697  0.08559750  0.16729595    -0.52400
C340        C  0.37544185  0.10461950  0.19853992     0.73060
O341        O  0.26068686  0.10810922  0.19377235    -0.71820
O342        O  0.22654903  0.08243306  0.15325215    -0.50490
C343        C  0.23541455  0.10160713  0.18572407     0.74440
O344        O  0.35068783  0.49275899  0.19998028    -0.67140
O345        O  0.38736112  0.01590735  0.16279803    -0.54340
C346        C  0.37613787  0.99864401  0.19455643     0.72830
Zr347      Zr  0.30703610  0.00359670  0.16954323     2.77540
O348        O  0.31159435  0.01258367  0.25336818    -0.97890
O349        O  0.30718664  0.44589970  0.16978305    -0.78710
Zr350      Zr  0.30645626  0.09554007  0.16879154     2.70070
O351        O  0.30287543  0.09687781  0.25383831    -0.79960
O352        O  0.30639528  0.15260672  0.15700480    -0.99050
Zr353      Zr  0.36554191  0.05034183  0.10697816     2.21500
Zr354      Zr  0.25170732  0.04556909  0.09899460     2.11130
O355        O  0.27949795  0.04885454  0.16757455    -2.47730
O356        O  0.33429001  0.05004819  0.17187414    -0.79750
O357        O  0.28069880  0.99948989  0.10062227    -0.71950
O358        O  0.33679656  0.09682927  0.10406149    -2.32910
O359        O  0.33832034  0.00179508  0.10585986    -2.29120
O360        O  0.27902622  0.09350338  0.10076656    -0.73710
H361        H  0.27409029  0.04697156  0.00513430     0.78290
H362        H  0.34764700  0.11605568  0.10421250     0.79370
H363        H  0.26812303  0.04905680  0.19540203     0.81600
H364        H  0.34975286  0.48308676  0.10792627     0.79210
H365        H  0.33128430  0.15624871  0.03992726     0.42240
H366        H  0.28817117  0.15725468  0.14326545     0.41210
H367        H  0.31502358  0.07957440  0.26455618     0.40890
H368        H  0.29421022  0.02276445  0.26367787     0.38820
H369        H  0.30094995  0.43978650  0.13807807     0.41960
H370        H  0.33977650  0.44186829  0.04240423     0.36740
H371        H  0.32798226  0.02385468  0.94600953     0.42860
H372        H  0.29735048  0.07542872  0.94161449     0.39270
H373        H  0.31155222  0.49124608  0.26760415     0.44190
H374        H  0.31771711  0.43802753  0.00309087     0.42910
H375        H  0.30058703  0.11238960  0.94129418     0.43050
H376        H  0.30536834  0.16152599  0.18906418     0.43410
C377        C  0.30246516  0.30496060  0.09547032    -0.02660
C378        C  0.04809644  0.29968758  0.60709903    -0.02660
O379        O  0.12260967  0.23836344  0.43328244    -0.75460
O380        O  0.14606655  0.20984318  0.48745946    -0.54370
C381        C  0.12762638  0.23074550  0.47592317     0.78270
O382        O  0.11997899  0.11822083  0.26733910    -0.60060
O383        O  0.14186030  0.14505487  0.20942572    -0.53090
C384        C  0.12386111  0.12458217  0.22389253     0.70280
O385        O  0.11793116  0.11508454  0.41906402    -0.74620
O386        O  0.14269365  0.14042613  0.47606367    -0.55190
C387        C  0.12325672  0.12174719  0.46160714     0.76280
O388        O  0.12133511  0.24336403  0.28288432    -0.59770
O389        O  0.14272295  0.21601111  0.22346364    -0.52890
C390        C  0.12545605  0.23659821  0.23993362     0.72880
Zr391      Zr  0.13789924  0.22378226  0.35459728     2.54710
O392        O  0.08779765  0.21977945  0.35705632    -0.80330
O393        O  0.14064581  0.28135851  0.35876275    -0.93750
Zr394      Zr  0.13551131  0.13138979  0.34532844     2.64680
O395        O  0.08529689  0.13412273  0.34695268    -0.98700
O396        O  0.13612330  0.07410544  0.33679381    -0.80760
O397        O  0.13660810  0.17611052  0.39606682    -0.84120
O398        O  0.13521179  0.17904870  0.30356109    -2.18830
O399        O  0.23394393  0.23573351  0.26542237    -0.67510
O400        O  0.20776533  0.21184529  0.20945756    -0.52080
C401        C  0.22779576  0.23029929  0.22232078     0.71260
O402        O  0.23308860  0.11299339  0.42619547    -0.60420
O403        O  0.20926219  0.13984197  0.48332715    -0.52400
C404        C  0.22799175  0.11985653  0.46995832     0.73060
O405        O  0.22375068  0.11105069  0.26360545    -0.71820
O406        O  0.20021589  0.13836937  0.20744686    -0.50490
C407        C  0.21729446  0.11689975  0.22057443     0.74440
O408        O  0.23731982  0.23461918  0.41811234    -0.67140
O409        O  0.21279592  0.20943803  0.47590687    -0.54340
C410        C  0.23213625  0.22816439  0.46094180     0.72830
Zr411      Zr  0.21842843  0.22054297  0.34390216     2.77540
O412        O  0.26856968  0.21713128  0.34345355    -0.97890
O413        O  0.21610945  0.27817943  0.34453904    -0.78710
Zr414      Zr  0.21620128  0.12731594  0.34573215     2.70070
O415        O  0.26618645  0.12947348  0.33786557    -0.79960
O416        O  0.21509017  0.06966287  0.34901835    -0.99050
Zr417      Zr  0.17774457  0.17496966  0.44047648     2.21500
Zr418      Zr  0.17519559  0.17748995  0.25413869     2.11130
O419        O  0.21702729  0.17387791  0.29826037    -2.47730
O420        O  0.21766979  0.17415204  0.39087270    -0.79750
O421        O  0.17672738  0.22386122  0.30249725    -0.71950
O422        O  0.17575039  0.12799680  0.39255538    -2.32910
O423        O  0.17960284  0.22268141  0.39587230    -2.29120
O424        O  0.17567717  0.12975824  0.29925144    -0.73710
H425        H  0.11850934  0.18000175  0.28544668     0.78290
H426        H  0.17507100  0.10916297  0.41165241     0.79370
H427        H  0.23283328  0.17312683  0.27751720     0.81600
H428        H  0.18074007  0.24103846  0.41609404     0.79210
H429        H  0.15265522  0.06958934  0.31738007     0.42240
H430        H  0.20553110  0.06294779  0.32011940     0.41210
H431        H  0.27206714  0.14505423  0.36182734     0.40890
H432        H  0.27312593  0.20191447  0.31809964     0.38820
H433        H  0.20019193  0.28333610  0.32447391     0.41960
H434        H  0.15161038  0.28590328  0.38710069     0.36740
H435        H  0.08390335  0.20175772  0.37819445     0.42860
H436        H  0.08027272  0.14779673  0.32028272     0.39270
H437        H  0.27497618  0.23792901  0.33165654     0.44190
H438        H  0.12172101  0.28825442  0.36706485     0.42910
H439        H  0.07909539  0.11264244  0.33764149     0.43050
H440        H  0.23449670  0.06316766  0.34396328     0.43410
O441        O  0.35992453  0.23447763  0.67530864    -0.75460
O442        O  0.33761617  0.26162966  0.73384475    -0.54370
C443        C  0.35549217  0.24164011  0.71803730     0.78270
O444        O  0.36159002  0.36112752  0.53976835    -0.60060
O445        O  0.33655193  0.33653289  0.48227592    -0.53090
C446        C  0.35578628  0.35537574  0.49732006     0.70280
O447        O  0.35817059  0.36021117  0.69048190    -0.74620
O448        O  0.33717070  0.33111171  0.74669404    -0.55190
C449        C  0.35418225  0.35312799  0.73384924     0.76280
O450        O  0.35918171  0.23791929  0.52424448    -0.59770
O451        O  0.33465487  0.26469919  0.46928440    -0.52890
C452        C  0.35413595  0.24519319  0.48145254     0.72880
Zr453      Zr  0.34206062  0.25094226  0.60258648     2.54710
O454        O  0.39227792  0.25139118  0.60005079    -0.80330
O455        O  0.33766797  0.19356677  0.59890832    -0.93750
Zr456      Zr  0.34461059  0.34329894  0.61207600     2.64680
O457        O  0.39438222  0.33598771  0.61606097    -0.98700
O458        O  0.34593154  0.40095161  0.61246033    -0.80760
O459        O  0.34477681  0.29568591  0.65368549    -0.84120
O460        O  0.34334301  0.29856265  0.56108955    -2.18830
O461        O  0.24426174  0.23774791  0.53805967    -0.67510
O462        O  0.26851140  0.26335190  0.48024974    -0.52080
C463        C  0.24959016  0.24403984  0.49520527     0.71260
O464        O  0.25548620  0.36286246  0.69019493    -0.60420
O465        O  0.28005666  0.33730982  0.74694982    -0.52400
C466        C  0.26261844  0.35800033  0.73307698     0.73060
O467        O  0.24606380  0.36164586  0.52868213    -0.71820
O468        O  0.27047447  0.33541001  0.47184121    -0.50490
C469        C  0.25139326  0.35535444  0.48481377     0.74440
O470        O  0.24660274  0.23731002  0.69135276    -0.67140
O471        O  0.27194451  0.26364749  0.74623895    -0.54340
C472        C  0.25283592  0.24370966  0.73417036     0.72830
Zr473      Zr  0.26147467  0.25388261  0.61271250     2.77540
O474        O  0.21143261  0.25817169  0.61735295    -0.97890
O475        O  0.26329557  0.19628961  0.61321123    -0.78710
Zr476      Zr  0.26359774  0.34705702  0.60873082     2.70070
O477        O  0.21355427  0.34556373  0.61568690    -0.79960
O478        O  0.26564770  0.40460155  0.60655342    -0.99050
Zr479      Zr  0.30444481  0.29794371  0.70147236     2.21500
Zr480      Zr  0.30231953  0.29963447  0.51543233     2.11130
O481        O  0.26203254  0.29997030  0.56457769    -2.47730
O482        O  0.26266827  0.30098321  0.65735335    -0.79750
O483        O  0.30043905  0.25206246  0.56075894    -0.71950
O484        O  0.30403474  0.34538105  0.65585055    -2.32910
O485        O  0.30308140  0.25103889  0.65424031    -2.29120
O486        O  0.30457951  0.34622771  0.56363097    -0.73710
H487        H  0.35963901  0.29848592  0.54148603     0.78290
H488        H  0.30530443  0.36410828  0.67524078     0.79370
H489        H  0.24554522  0.30033049  0.54585854     0.81600
H490        H  0.30304203  0.23225262  0.67344666     0.79210
H491        H  0.32822747  0.40737011  0.62708227     0.42240
H492        H  0.27543376  0.40939341  0.57687640     0.41210
H493        H  0.20979195  0.32959112  0.64021652     0.40890
H494        H  0.20621046  0.27139232  0.59029326     0.38820
H495        H  0.27210048  0.19069710  0.58294659     0.41960
H496        H  0.32944737  0.18751406  0.62941472     0.36740
H497        H  0.39775910  0.26818275  0.62245680     0.42860
H498        H  0.39960797  0.32568602  0.58608800     0.39270
H499        H  0.20456082  0.23669427  0.60951987     0.44190
H500        H  0.35685376  0.18565567  0.60023116     0.42910
H501        H  0.40212475  0.35766449  0.61383089     0.43050
H502        H  0.24638790  0.41128299  0.60106247     0.43410
C503        C  0.30236878  0.05207293  0.60637397    -0.02660
C504        C  0.04912253  0.04660350  0.09965190    -0.02660
C505        C  0.09124467  0.08600497  0.11405281    -0.26490
C506        C  0.07041438  0.06570958  0.13297834    -0.14560
C507        C  0.07120876  0.06348159  0.18327001     0.36070
C508        C  0.08663043  0.08493025  0.21004833    -0.25940
C509        C  0.10592785  0.10592948  0.19052834    -0.15180
C510        C  0.10893789  0.10541673  0.14149121     0.37150
N511        N  0.13051115  0.12351604  0.11942883    -0.89430
H512        H  0.09658562  0.08437936  0.07806243     0.18270
H513        H  0.08474510  0.08289739  0.24772185     0.18260
N514        N  0.05926335  0.03766092  0.20877550    -0.88460
H515        H  0.12964208  0.12126204  0.08301061     0.35640
H516        H  0.14932423  0.11371277  0.12954321     0.40730
H517        H  0.04629877  0.04689688  0.23490291     0.40350
H518        H  0.07506426  0.02519635  0.22522081     0.35240
C519        C  0.25540055  0.05965038  0.56112952    -0.26490
C520        C  0.28063613  0.07343854  0.57702609    -0.14560
C521        C  0.28407953  0.10598224  0.56368471     0.36070
C522        C  0.26723472  0.11982979  0.52836002    -0.25940
C523        C  0.24492647  0.10376438  0.50785043    -0.15180
C524        C  0.23837085  0.07356504  0.52646447     0.37150
N525        N  0.21479000  0.05584994  0.51080410    -0.89430
H526        H  0.24996618  0.03593048  0.57219455     0.18270
H527        H  0.27117629  0.14399860  0.51748922     0.18260
N528        N  0.30295761  0.12617358  0.58794436    -0.88460
H529        H  0.22204450  0.03527690  0.49434714     0.35640
H530        H  0.20353617  0.06823239  0.48585707     0.40730
H531        H  0.29506267  0.12972902  0.62171336     0.40350
H532        H  0.30417765  0.14840847  0.57218814     0.35240
C533        C  0.07852555  0.24916873  0.58039799    -0.26490
C534        C  0.07102515  0.28172582  0.57437575    -0.14560
C535        C  0.08268573  0.29559790  0.53228880     0.36070
C536        C  0.10216224  0.27920701  0.50406434    -0.25940
C537        C  0.11022320  0.24791040  0.51257816    -0.15180
C538        C  0.09756348  0.23278979  0.55097903     0.37150
N539        N  0.10215966  0.19985763  0.55923029    -0.89430
H540        H  0.06887036  0.23447883  0.60609779     0.18270
H541        H  0.11026957  0.29106279  0.47329613     0.18260
N542        N  0.07375438  0.32577857  0.51504304    -0.88460
H543        H  0.12311319  0.19642454  0.56571272     0.35640
H544        H  0.09673548  0.18708678  0.52921315     0.40730
H545        H  0.06424430  0.32200116  0.48275496     0.40350
H546        H  0.09105902  0.33992465  0.50839079     0.35240
C547        C  0.29103989  0.26713062  0.16240984    -0.26490
C548        C  0.28021362  0.28506618  0.12481360    -0.14560
C549        C  0.25108025  0.28051925  0.11634183     0.36070
C550        C  0.23483869  0.26147970  0.14687899    -0.25940
C551        C  0.24590293  0.24649740  0.18628654    -0.15180
C552        C  0.27462686  0.24885016  0.19304620     0.37150
N553        N  0.28727323  0.23250592  0.23136431    -0.89430
H554        H  0.31298281  0.26813519  0.16896021     0.18270
H555        H  0.21292193  0.25928905  0.14044361     0.18260
N556        N  0.23661761  0.29344139  0.07725544    -0.88460
H557        H  0.30854787  0.23651057  0.23184431     0.35640
H558        H  0.28448744  0.20821217  0.22585862     0.40730
H559        H  0.24745185  0.29107144  0.04592629     0.40350
H560        H  0.23103827  0.31680494  0.08382734     0.35240
C561        C  0.41589295  0.12402338  0.30846406    -0.26490
C562        C  0.41632269  0.15762242  0.30816901    -0.14560
C563        C  0.40466888  0.17286045  0.26812578     0.36070
C564        C  0.39329762  0.15459731  0.23164642    -0.25940
C565        C  0.39349314  0.12142748  0.23231729    -0.15180
C566        C  0.40538681  0.10600078  0.27100669     0.37150
N567        N  0.40640758  0.07206577  0.27448035    -0.89430
H568        H  0.42390907  0.11101326  0.33785378     0.18270
H569        H  0.38361115  0.16645864  0.20248991     0.18260
N570        N  0.40517589  0.20687426  0.26366275    -0.88460
H571        H  0.42715559  0.06549635  0.27582145     0.35640
H572        H  0.39821770  0.06089538  0.24508042     0.40730
H573        H  0.39270783  0.21685558  0.28965308     0.40350
H574        H  0.39693968  0.21395824  0.23166230     0.35240
C575        C  0.46570098  0.18845666  0.27933643    -0.26490
C576        C  0.45246247  0.20037518  0.32030526    -0.14560
C577        C  0.45784443  0.23325392  0.32962151     0.36070
C578        C  0.47835205  0.24996700  0.30388707    -0.25940
C579        C  0.49242622  0.23603831  0.26642288    -0.15180
C580        C  0.48625342  0.20457258  0.25475988     0.37150
N581        N  0.00015956  0.18937768  0.21601358    -0.89430
H582        H  0.45980908  0.16585633  0.26476543     0.18270
H583        H  0.48194885  0.27471572  0.31059909     0.18260
N584        N  0.44100888  0.25127002  0.36083972    -0.88460
H585        H  0.99312453  0.16615968  0.21122793     0.35640
H586        H  0.02104456  0.18775950  0.22446803     0.40730
H587        H  0.43079546  0.26867002  0.34174537     0.40350
H588        H  0.45365490  0.26199544  0.38580265     0.35240
C589        C  0.43933777  0.14436928  0.42365063    -0.26490
C590        C  0.44973807  0.15385064  0.37934290    -0.14560
C591        C  0.47610280  0.13992769  0.36692135     0.36070
C592        C  0.99265153  0.12530179  0.40112509    -0.25940
C593        C  0.48309724  0.12021604  0.44644135    -0.15180
C594        C  0.45550511  0.12847487  0.45681677     0.37150
N595        N  0.44338102  0.12024090  0.50099158    -0.89430
H596        H  0.41818078  0.14917545  0.43344393     0.18270
H597        H  0.01304107  0.11681147  0.39174314     0.18260
N598        N  0.98532586  0.13690043  0.31947817    -0.88460
H599        H  0.42618450  0.10590036  0.49471207     0.35640
H600        H  0.43655477  0.14108172  0.51724850     0.40730
H601        H  0.47325512  0.11938043  0.30370407     0.40350
H602        H  0.00572623  0.12901972  0.31718539     0.35240
C603        C  0.41910055  0.21096196  0.42142249    -0.26490
C604        C  0.40947259  0.19546471  0.38037941    -0.14560
C605        C  0.37977994  0.19513222  0.37601959     0.36070
C606        C  0.36256560  0.21329959  0.40662654    -0.25940
C607        C  0.37302897  0.22987645  0.44523553    -0.15180
C608        C  0.40175137  0.22790717  0.45273416     0.37150
N609        N  0.41372476  0.24343392  0.49238673    -0.89430
H610        H  0.44094628  0.21032965  0.42907319     0.18270
H611        H  0.34043183  0.21263771  0.40177030     0.18260
N612        N  0.36612279  0.17492934  0.34316509    -0.88460
H613        H  0.42852483  0.25951041  0.48019248     0.35640
H614        H  0.42380332  0.22633055  0.51233173     0.40730
H615        H  0.35329375  0.18885800  0.32241431     0.40350
H616        H  0.35364446  0.15908460  0.36178750     0.35240
C617        C  0.16795618  0.38614231  0.29037765    -0.26490
C618        C  0.15507160  0.40739334  0.32216827    -0.14560
C619        C  0.12583584  0.41226971  0.31634345     0.36070
C620        C  0.11126252  0.39468847  0.28295716    -0.25940
C621        C  0.12462213  0.37470219  0.25127911    -0.15180
C622        C  0.15329317  0.37045035  0.25463439     0.37150
N623        N  0.16741043  0.34988850  0.22219755    -0.89430
H624        H  0.19007337  0.38292725  0.29202794     0.18270
H625        H  0.08928466  0.39865688  0.27938446     0.18260
N626        N  0.11099333  0.43760857  0.33883649    -0.88460
H627        H  0.18831398  0.34831805  0.23054404     0.35640
H628        H  0.16653718  0.36035796  0.18915839     0.40730
H629        H  0.10308523  0.45265731  0.31328151     0.40350
H630        H  0.09385619  0.42798972  0.35606271     0.35240
C631        C  0.19178072  0.47865047  0.23736210    -0.26490
C632        C  0.22031632  0.48285412  0.24036113    -0.14560
C633        C  0.23211131  0.47548540  0.28506952     0.36070
C634        C  0.21562315  0.46408445  0.32270350    -0.25940
C635        C  0.18895669  0.45213421  0.31618467    -0.15180
C636        C  0.17615158  0.46425217  0.27420584     0.37150
N637        N  0.14694854  0.46456248  0.26939879    -0.89430
H638        H  0.18132196  0.98626344  0.20597690     0.18270
H639        H  0.22454711  0.46289166  0.35718731     0.18260
N640        N  0.26120219  0.47842552  0.29265067    -0.88460
H641        H  0.14192516  0.95274421  0.23834526     0.35640
H642        H  0.14054902  0.48812382  0.26642100     0.40730
H643        H  0.27047289  0.45887992  0.27633437     0.40350
H644        H  0.26593866  0.47631980  0.32814548     0.35240
C645        C  0.12087516  0.45105768  0.45324707    -0.26490
C646        C  0.12321561  0.48372026  0.45623460    -0.14560
C647        C  0.14452708  0.99856993  0.43007777     0.36070
C648        C  0.16093619  0.48042159  0.39841223    -0.25940
C649        C  0.15767779  0.44707706  0.39260375    -0.15180
C650        C  0.13743294  0.43277528  0.42316770     0.37150
N651        N  0.13098811  0.39986251  0.42160255    -0.89430
H652        H  0.10528939  0.43920283  0.47430917     0.18270
H653        H  0.17659818  0.99300613  0.37883739     0.18260
N654        N  0.15126500  0.03145124  0.43663624    -0.88460
H655        H  0.11014327  0.39681347  0.41374639     0.35640
H656        H  0.13382056  0.39076711  0.45524240     0.40730
H657        H  0.13825627  0.04224323  0.46119330     0.40350
H658        H  0.14810590  0.04287160  0.40491829     0.35240
C659        C  0.22562878  0.40407160  0.37606179    -0.26490
C660        C  0.19625800  0.40409651  0.38112099    -0.14560
C661        C  0.18732957  0.37890017  0.41122091     0.36070
C662        C  0.20481827  0.36661412  0.44702840    -0.25940
C663        C  0.23353463  0.37157810  0.44715372    -0.15180
C664        C  0.24398559  0.38876189  0.40791307     0.37150
N665        N  0.27304396  0.39155621  0.39868420    -0.89430
H666        H  0.23525746  0.41394696  0.34545302     0.18270
H667        H  0.19642058  0.34942386  0.47134786     0.18260
N668        N  0.16575244  0.35835441  0.39510490    -0.88460
H669        H  0.27722784  0.37926038  0.36758754     0.35640
H670        H  0.28482039  0.38117873  0.42481546     0.40730
H671        H  0.15845234  0.34431467  0.42265077     0.40350
H672        H  0.17442820  0.34289046  0.37041311     0.35240
C673        C  0.11201852  0.12755338  0.81273630    -0.26490
C674        C  0.12268436  0.11623477  0.77026420    -0.14560
C675        C  0.15117016  0.12032484  0.76131939     0.36070
C676        C  0.16689537  0.13977377  0.79076795    -0.25940
C677        C  0.15684487  0.15223947  0.83367289    -0.15180
C678        C  0.12862369  0.14416725  0.84503097     0.37150
N679        N  0.11659396  0.15150980  0.88981584    -0.89430
H680        H  0.09046247  0.12357647  0.82113647     0.18270
H681        H  0.18743584  0.14434568  0.77871893     0.18260
N682        N  0.16499282  0.10495908  0.72259815    -0.88460
H683        H  0.09897251  0.16520949  0.88431963     0.35640
H684        H  0.10998626  0.13040701  0.90532925     0.40730
H685        H  0.15386282  0.08503244  0.71191798     0.40350
H686        H  0.18324574  0.09514656  0.73528307     0.35240
C687        C  0.13617670  0.21429169  0.87090159    -0.26490
C688        C  0.15734447  0.19729755  0.89489225    -0.14560
C689        C  0.15692286  0.20073121  0.94505780     0.36070
C690        C  0.13700635  0.21912942  0.96728439    -0.25940
C691        C  0.11543926  0.23358173  0.94373870    -0.15180
C692        C  0.11530182  0.23195947  0.89455507     0.37150
N693        N  0.09330135  0.24638012  0.86892647    -0.89430
H694        H  0.13484784  0.21198979  0.83320857     0.18270
H695        H  0.13801264  0.22081480  0.00506226     0.18260
N696        N  0.17549486  0.18509971  0.97586236    -0.88460
H697        H  0.09546197  0.24163164  0.83314205     0.35640
H698        H  0.09521921  0.27092610  0.87284718     0.40730
H699        H  0.16419104  0.17056116  0.99857563     0.40350
H700        H  0.18589454  0.20216857  0.99573838     0.35240
C701        C  0.21697493  0.16498853  0.92217701    -0.26490
C702        C  0.19291971  0.15196581  0.90187476    -0.14560
C703        C  0.18446623  0.12161432  0.91932588     0.36070
C704        C  0.19905831  0.10656231  0.95587307    -0.25940
C705        C  0.22227448  0.12033067  0.97640000    -0.15180
C706        C  0.23107399  0.15032397  0.95879917     0.37150
N707        N  0.25342785  0.16786053  0.97895394    -0.89430
H708        H  0.22389533  0.18838882  0.91196606     0.18270
H709        H  0.19232340  0.08359229  0.96802488     0.18260
N710        N  0.16134805  0.10528466  0.90031249    -0.88460
H711        H  0.27215114  0.15712520  0.97030155     0.35640
H712        H  0.25080253  0.16886817  0.01528625     0.40730
H713        H  0.14837989  0.09821751  0.92776597     0.40350
H714        H  0.16848744  0.08523078  0.88261534     0.35240
C715        C  0.19381594  0.22405659  0.82005846    -0.26490
C716        C  0.19843471  0.19196829  0.83314647    -0.14560
C717        C  0.22391594  0.17859459  0.81445272     0.36070
C718        C  0.24173593  0.19667648  0.78530743    -0.25940
C719        C  0.23563420  0.22763452  0.77143831    -0.15180
C720        C  0.21095013  0.24101560  0.78865623     0.37150
N721        N  0.20184504  0.27167778  0.77385323    -0.89430
H722        H  0.17647823  0.23716218  0.83302811     0.18270
H723        H  0.26022987  0.18559575  0.77140768     0.18260
N724        N  0.23258310  0.14636642  0.82169209    -0.88460
H725        H  0.18428228  0.26810427  0.75347899     0.35640
H726        H  0.21628052  0.28314083  0.75259277     0.40730
H727        H  0.21720095  0.13135536  0.83400584     0.40350
H728        H  0.24902890  0.14643630  0.84513171     0.35240
C729        C  0.09764499  0.35864807  0.67626367    -0.26490
C730        C  0.08710828  0.35868328  0.72216286    -0.14560
C731        C  0.06237880  0.34166430  0.73011531     0.36070
C732        C  0.04981348  0.32505909  0.69249377    -0.25940
C733        C  0.06197398  0.32187973  0.64666838    -0.15180
C734        C  0.08589977  0.34094270  0.63949313     0.37150
N735        N  0.09896502  0.34320236  0.59497617    -0.89430
H736        H  0.11617126  0.37218345  0.66867779     0.18270
H737        H  0.03022702  0.31410899  0.70057566     0.18260
N738        N  0.04963351  0.33963214  0.77562584    -0.88460
H739        H  0.11940143  0.33569347  0.59814694     0.35640
H740        H  0.09911304  0.36703961  0.58502580     0.40730
H741        H  0.06083226  0.35186103  0.80090345     0.40350
H742        H  0.04980875  0.31580752  0.78556273     0.35240
C743        C  0.06145391  0.49444216  0.98727087    -0.26490
C744        C  0.09020315  0.49332626  0.98498132    -0.14560
C745        C  0.10515802  0.00580844  0.02365455     0.36070
C746        C  0.09166671  0.02071573  0.06103192    -0.25940
C747        C  0.06315628  0.02538594  0.06127412    -0.15180
C748        C  0.04785312  0.50994524  0.02488672     0.37150
N749        N  0.01838541  0.50981580  0.02582335    -0.89430
H750        H  0.04944295  0.48415095  0.95920458     0.18270
H751        H  0.10412547  0.02856733  0.09003136     0.18260
N752        N  0.13451508  0.00358099  0.02571032    -0.88460
H753        H  0.01168112  0.48625001  0.02602401     0.35640
H754        H  0.01152287  0.02038998  0.99501467     0.40730
H755        H  0.13962444  0.99175362  0.05655593     0.40350
H756        H  0.14260702  0.02653802  0.02774192     0.35240
C757        C  0.26041557  0.37039194  0.03009901    -0.26490
C758        C  0.26654826  0.36503371  0.98250060    -0.14560
C759        C  0.28688226  0.34239948  0.97140632     0.36070
C760        C  0.29890889  0.32417998  0.00763063    -0.25940
C761        C  0.29046415  0.32679307  0.05550211    -0.15180
C762        C  0.27255122  0.35250327  0.06617639     0.37150
N763        N  0.26629740  0.36058315  0.11386488    -0.89430
H764        H  0.24532406  0.38829130  0.03947243     0.18270
H765        H  0.31509325  0.30803187  0.99750643     0.18260
N766        N  0.29487258  0.33740798  0.92338827    -0.88460
H767        H  0.24492844  0.36100445  0.11863661     0.35640
H768        H  0.27348411  0.38360598  0.11987340     0.40730
H769        H  0.27777569  0.32839504  0.90563517     0.40350
H770        H  0.31027111  0.32015924  0.92088177     0.35240
C771        C  0.28063984  0.48180514  0.69124686    -0.26490
C772        C  0.26256681  0.49773335  0.72180832    -0.14560
C773        C  0.25420897  0.02859833  0.70896432     0.36070
C774        C  0.26392558  0.04283453  0.66746581    -0.25940
C775        C  0.28492330  0.02890929  0.63936877    -0.15180
C776        C  0.29173976  0.49668602  0.65057124     0.37150
N777        N  0.30876520  0.47796697  0.62026512    -0.89430
H778        H  0.28542979  0.45715902  0.69788485     0.18270
H779        H  0.25776216  0.06707224  0.66097705     0.18260
N780        N  0.23602444  0.04618189  0.73908457    -0.88460
H781        H  0.29725589  0.45852792  0.60879206     0.35640
H782        H  0.32537458  0.46949430  0.63966028     0.40730
H783        H  0.21858464  0.05226939  0.71984573     0.40350
H784        H  0.24602016  0.06712409  0.74896091     0.35240
C785        C  0.31920555  0.07040573  0.69025735    -0.26490
C786        C  0.32210830  0.07264397  0.64054478    -0.14560
C787        C  0.34589059  0.09087794  0.62559757     0.36070
C788        C  0.36347743  0.10554334  0.65896973    -0.25940
C789        C  0.35848075  0.10398509  0.70759582    -0.15180
C790        C  0.33501501  0.08728712  0.72262926     0.37150
N791        N  0.32690093  0.08729718  0.77128193    -0.89430
H792        H  0.30518835  0.05459783  0.70688033     0.18270
H793        H  0.38129439  0.11855447  0.64633676     0.18260
N794        N  0.35343767  0.09520330  0.57719805    -0.88460
H795        H  0.30952676  0.07313721  0.77722884     0.35640
H796        H  0.32094282  0.11043045  0.77987091     0.40730
H797        H  0.33881859  0.08630692  0.55415016     0.40350
H798        H  0.37198133  0.08325914  0.57095488     0.35240
C799        C  0.02481954  0.11313581  0.01373446    -0.26490
C800        C  0.49635019  0.11240719  0.01969519    -0.14560
C801        C  0.48426975  0.08970109  0.04848435     0.36070
C802        C  0.50127851  0.06855385  0.07195477    -0.25940
C803        C  0.03072941  0.07048254  0.07080973    -0.15180
C804        C  0.04179200  0.09126132  0.03600144     0.37150
N805        N  0.06848713  0.08648020  0.01570697    -0.89430
H806        H  0.03370774  0.12841802  0.98712874     0.18270
H807        H  0.49064337  0.04862400  0.08695611     0.18260
N808        N  0.45474255  0.08617450  0.05009555    -0.88460
H809        H  0.07869173  0.10835343  0.01474761     0.35640
H810        H  0.06597895  0.07896323  0.98106016     0.40730
H811        H  0.44664780  0.10660566  0.06576405     0.40350
H812        H  0.44895810  0.06725188  0.07156184     0.35240
C813        C  0.33117018  0.23719738  0.01668696    -0.26490
C814        C  0.35946436  0.23889668  0.02521461    -0.14560
C815        C  0.36877319  0.25596799  0.06431429     0.36070
C816        C  0.34981751  0.27475103  0.08972066    -0.25940
C817        C  0.32207425  0.27856444  0.07485115    -0.15180
C818        C  0.31246091  0.25608988  0.04151884     0.37150
N819        N  0.28386929  0.25341062  0.03058615    -0.89430
H820        H  0.32357854  0.22226704  0.98857481     0.18270
H821        H  0.35734723  0.28697305  0.12031358     0.18260
N822        N  0.39748466  0.25575060  0.07639649    -0.88460
H823        H  0.27764230  0.23011440  0.03725799     0.35640
H824        H  0.28142029  0.25764108  0.99481539     0.40730
H825        H  0.40232435  0.23284112  0.08740141     0.40350
H826        H  0.40111623  0.27075991  0.10491863     0.35240
C827        C  0.04003409  0.25524331  0.66797551    -0.26490
C828        C  0.02817673  0.27594183  0.63480666    -0.14560
C829        C  0.49834955  0.27782923  0.63668415     0.36070
C830        C  0.48281239  0.25657361  0.66383993    -0.25940
C831        C  0.49520704  0.23580926  0.69473889    -0.15180
C832        C  0.02435414  0.23483796  0.69646532     0.37150
N833        N  0.03885627  0.21411505  0.72765978    -0.89430
H834        H  0.06207897  0.25601821  0.67372379     0.18270
H835        H  0.46055142  0.25908980  0.66482241     0.18260
N836        N  0.48315402  0.30344234  0.61669385    -0.88460
H837        H  0.05167664  0.19968257  0.70714307     0.35640
H838        H  0.02539061  0.19859950  0.74471338     0.40730
H839        H  0.47321497  0.31592045  0.64364623     0.40350
H840        H  0.46807638  0.29398763  0.59464506     0.35240
C841        C  0.31105033  0.33454557  0.17473771    -0.26490
C842        C  0.31943012  0.32832577  0.12821271    -0.14560
C843        C  0.34360911  0.34473189  0.11256564     0.36070
C844        C  0.36093244  0.36071890  0.14488310    -0.25940
C845        C  0.35393711  0.36309644  0.19264409    -0.15180
C846        C  0.32743120  0.35184795  0.20636485     0.37150
N847        N  0.31672308  0.35847105  0.25242813    -0.89430
H848        H  0.29112967  0.32648428  0.18695637     0.18270
H849        H  0.38021577  0.37073434  0.13251140     0.18260
N850        N  0.35147816  0.34392293  0.06414606    -0.88460
H851        H  0.29742006  0.34792396  0.25756357     0.35640
H852        H  0.31360424  0.38294817  0.25461172     0.40730
H853        H  0.35230123  0.36726692  0.05209855     0.40350
H854        H  0.37134064  0.33445411  0.06148647     0.35240
C855        C  0.51472590  0.47564611  0.16687380    -0.26490
C856        C  0.49480839  0.49166283  0.19324909    -0.14560
C857        C  0.49259332  0.02466443  0.19039030     0.36070
C858        C  0.51086527  0.04126408  0.16152358    -0.25940
C859        C  0.03020989  0.02563082  0.13173604    -0.15180
C860        C  0.03296569  0.49215972  0.13739802     0.37150
N861        N  0.05583327  0.47510496  0.11796755    -0.89430
H862        H  0.51741195  0.45036317  0.17165442     0.18270
H863        H  0.51010726  0.06693179  0.16198714     0.18260
N864        N  0.47214075  0.04122611  0.21777389    -0.88460
H865        H  0.04824420  0.45651044  0.09750756     0.35640
H866        H  0.06708038  0.46547512  0.14552903     0.40730
H867        H  0.45276444  0.03390577  0.20603222     0.40350
H868        H  0.47330885  0.06563808  0.21190062     0.35240
C869        C  0.49747155  0.32114404  0.50689296    -0.26490
C870        C  0.49164101  0.35322753  0.51532101    -0.14560
C871        C  0.50556453  0.36877130  0.55189490     0.36070
C872        C  0.02398318  0.35172854  0.58056336    -0.25940
C873        C  0.02950937  0.31913235  0.57317988    -0.15180
C874        C  0.51601044  0.30399434  0.53463038     0.37150
N875        N  0.52115011  0.27119392  0.52347425    -0.89430
H876        H  0.48745544  0.30921870  0.47793540     0.18270
H877        H  0.03373557  0.36431816  0.60896811     0.18260
N878        N  0.50193270  0.40217179  0.55882344    -0.88460
H879        H  0.51148020  0.26467976  0.49228763     0.35640
H880        H  0.01223749  0.25719697  0.54951628     0.40730
H881        H  0.50839486  0.41358019  0.52822461     0.40350
H882        H  0.01551776  0.40983637  0.58460265     0.35240
C883        C  0.33430934  0.50737693  0.49600560    -0.26490
C884        C  0.36073354  0.49939809  0.51088540    -0.14560
C885        C  0.36770038  0.00680507  0.55763696     0.36070
C886        C  0.34850600  0.02245213  0.58708444    -0.25940
C887        C  0.32179645  0.03205585  0.57186224    -0.15180
C888        C  0.31498544  0.02264127  0.52505426     0.37150
N889        N  0.28831023  0.02696084  0.50570275    -0.89430
H890        H  0.32796936  0.50093859  0.46089952     0.18270
H891        H  0.35473945  0.02678743  0.62282451     0.18260
N892        N  0.39423018  0.99942102  0.57618571    -0.88460
H893        H  0.29020484  0.04061505  0.47536983     0.35640
H894        H  0.28028338  0.00478681  0.49648451     0.40730
H895        H  0.40922081  0.50921288  0.55409146     0.40350
H896        H  0.39654452  0.97481017  0.57639508     0.35240
C897        C  0.43368431  0.47047804  0.92825643    -0.26490
C898        C  0.41472075  0.45444764  0.89803070    -0.14560
C899        C  0.38630820  0.45843340  0.90863352     0.36070
C900        C  0.37848886  0.47391345  0.95049139    -0.25940
C901        C  0.39736999  0.48908152  0.98055078    -0.15180
C902        C  0.42533545  0.98767934  0.96857700     0.37150
N903        N  0.44547454  0.00302440  0.99755135    -0.89430
H904        H  0.45557242  0.46818832  0.92149349     0.18270
H905        H  0.35690136  0.47408749  0.95946750     0.18260
N906        N  0.36513751  0.44698805  0.87800126    -0.88460
H907        H  0.46517320  0.00031644  0.98308730     0.35640
H908        H  0.44561250  0.99133599  0.02973810     0.40730
H909        H  0.36586237  0.46028075  0.84733797     0.40350
H910        H  0.34550894  0.45054468  0.89243626     0.35240
C911        C  0.47616356  0.45181565  0.83253452    -0.26490
C912        C  0.44701292  0.45395916  0.83180628    -0.14560
C913        C  0.43560223  0.47926129  0.80543054     0.36070
C914        C  0.45241170  0.99760390  0.77588992    -0.25940
C915        C  0.48072786  0.99203579  0.77241089    -0.15180
C916        C  0.99287384  0.46930104  0.80150936     0.37150
N917        N  0.02189309  0.46273248  0.79753717    -0.89430
H918        H  0.48644662  0.43657036  0.85688667     0.18270
H919        H  0.44305803  0.01560166  0.75422142     0.18260
N920        N  0.40664554  0.98543006  0.80676079    -0.88460
H921        H  0.02737488  0.44393785  0.81929196     0.35640
H922        H  0.03253547  0.48265203  0.80969352     0.40730
H923        H  0.39896933  0.48332897  0.77276679     0.40350
H924        H  0.40375931  0.00883286  0.81788709     0.35240
C925        C  0.39321048  0.39014737  0.74986928    -0.26490
C926        C  0.37147409  0.37201333  0.76891325    -0.14560
C927        C  0.36854969  0.37296678  0.81877638     0.36070
C928        C  0.38738734  0.39105092  0.84604814    -0.25940
C929        C  0.40763326  0.41157665  0.82649302    -0.15180
C930        C  0.41111652  0.40888624  0.77681922     0.37150
N931        N  0.43395068  0.42291510  0.75245409    -0.89430
H932        H  0.39732124  0.38937926  0.71255999     0.18270
H933        H  0.38526612  0.39000344  0.88375989     0.18260
N934        N  0.34693668  0.35676836  0.84386507    -0.88460
H935        H  0.44536922  0.40491825  0.73619622     0.35640
H936        H  0.42624514  0.43764351  0.72627821     0.40730
H937        H  0.33215424  0.34730365  0.82179661     0.40350
H938        H  0.33631487  0.37374166  0.86374352     0.35240
C939        C  0.43546356  0.39877171  0.93473365    -0.26490
C940        C  0.44323993  0.40490005  0.88794350    -0.14560
C941        C  0.46384316  0.38466672  0.86868547     0.36070
C942        C  0.98147143  0.36790856  0.89895010    -0.25940
C943        C  0.47708706  0.36870157  0.94771440    -0.15180
C944        C  0.45213693  0.38192521  0.96466594     0.37150
N945        N  0.44247737  0.37823302  0.01185025    -0.89430
H946        H  0.41658879  0.40817843  0.94958946     0.18270
H947        H  0.99886982  0.35506357  0.88436689     0.18260
N948        N  0.46755280  0.38183717  0.81908510    -0.88460
H949        H  0.45466553  0.39158985  0.03455532     0.35640
H950        H  0.44292027  0.35420956  0.02050752     0.40730
H951        H  0.46444713  0.35808626  0.80993967     0.40350
H952        H  0.98800263  0.38752005  0.81075865     0.35240
C953        C  0.42764879  0.93105023  0.86002403    -0.02660
O954        O  0.48789336  0.98618943  0.42330872    -0.75460
O955        O  0.46160436  0.96257585  0.48028599    -0.54370
C956        C  0.48151215  0.98071786  0.46566622     0.78270
O957        O  0.38375326  0.98970740  0.27177343    -0.60060
O958        O  0.40906693  0.96275809  0.21651044    -0.53090
C959        C  0.39186355  0.98383221  0.22956518     0.70280
O960        O  0.37521437  0.98952458  0.43247712    -0.74620
O961        O  0.39701379  0.96248149  0.49027230    -0.55190
C962        C  0.37931532  0.98302417  0.47608340     0.76280
O963        O  0.48468453  0.98294624  0.27192279    -0.59770
O964        O  0.46188490  0.95373631  0.21693401    -0.52890
C965        C  0.47950218  0.97475470  0.22952376     0.72880
Zr966      Zr  0.47042369  0.96945247  0.35096344     2.54710
O967        O  0.46910405  0.52712417  0.34941176    -0.80330
O968        O  0.02045649  0.96520389  0.34563930    -0.93750
Zr969      Zr  0.38975322  0.97408284  0.35277227     2.64680
O970        O  0.38584290  0.53132538  0.35925272    -0.98700
O971        O  0.33978234  0.97051426  0.34640689    -0.80760
O972        O  0.43002602  0.97336705  0.39852419    -0.84120
O973        O  0.43052952  0.97150946  0.30662199    -2.18830
O974        O  0.48911821  0.86610197  0.28906633    -0.67510
O975        O  0.46621885  0.89111899  0.23021327    -0.52080
C976        C  0.48588410  0.87419544  0.24670395     0.71260
O977        O  0.36816182  0.86447294  0.42135874    -0.60420
O978        O  0.39184020  0.89093683  0.47875024    -0.52400
C979        C  0.37309707  0.87141867  0.46375464     0.73060
O980        O  0.36804605  0.87061503  0.27147459    -0.71820
O981        O  0.39528985  0.89281332  0.21574615    -0.50490
C982        C  0.37380711  0.87655150  0.22845070     0.74440
O983        O  0.47947249  0.86227984  0.43755102    -0.67140
O984        O  0.45730681  0.89218889  0.49257539    -0.54340
C985        C  0.47478010  0.87048354  0.48009522     0.72830
Zr986      Zr  0.46580776  0.87703887  0.35969736     2.77540
O987        O  0.45807331  0.82081032  0.35978886    -0.97890
O988        O  0.01554626  0.87214940  0.36801278    -0.78710
Zr989      Zr  0.38573910  0.88163618  0.34918988     2.70070
O990        O  0.38440072  0.82411053  0.34307657    -0.79960
O991        O  0.33605089  0.88872898  0.35537006    -0.99050
Zr992      Zr  0.42703194  0.92677281  0.44574808     2.21500
Zr993      Zr  0.42963707  0.92297988  0.26255921     2.11130
O994        O  0.42750108  0.87595205  0.30769607    -2.47730
O995        O  0.42410848  0.87911229  0.40113966    -0.79750
O996        O  0.46932979  0.92151875  0.31015161    -0.71950
O997        O  0.38700885  0.92775326  0.39733022    -2.32910
O998        O  0.46845966  0.92465186  0.40108103    -2.29120
O999        O  0.38739600  0.92801179  0.30469579    -0.73710
H1000       H  0.43253074  0.99009386  0.28730890     0.78290
H1001       H  0.37041931  0.92860869  0.41618517     0.79370
H1002       H  0.42743488  0.85726396  0.28803495     0.81600
H1003       H  0.48457824  0.92399247  0.42068027     0.79210
H1004       H  0.33332592  0.96327353  0.37753257     0.42240
H1005       H  0.33131986  0.90345535  0.32979940     0.41210
H1006       H  0.39844478  0.81676299  0.36551518     0.40890
H1007       H  0.45507858  0.81616079  0.32626016     0.38820
H1008       H  0.02293499  0.89310308  0.35868706     0.41960
H1009       H  0.02602045  0.95373099  0.37420007     0.36740
H1010       H  0.45606582  0.53309783  0.37476432     0.42860
H1011       H  0.40464266  0.53924005  0.35239363     0.39270
H1012       H  0.47654807  0.81224164  0.36689726     0.44190
H1013       H  0.02728016  0.98710939  0.35038674     0.42910
H1014       H  0.37456410  0.53773311  0.33217967     0.43050
H1015       H  0.32817374  0.86805946  0.34579564     0.43410
O1016       O  0.48491973  0.73984985  0.92393760    -0.75460
O1017       O  0.46017535  0.71749909  0.98363628    -0.54370
C1018       C  0.47900531  0.73541570  0.96663393     0.78270
O1019       O  0.36745066  0.73292253  0.79400253    -0.60060
O1020       O  0.39167160  0.70744682  0.73613211    -0.53090
C1021       C  0.37260852  0.72610737  0.75141159     0.70280
O1022       O  0.37134645  0.73209335  0.94660830    -0.74620
O1023       O  0.39899702  0.70912785  0.00058245    -0.55190
C1024       C  0.37813970  0.72598354  0.98896394     0.76280
O1025       O  0.48452789  0.73069613  0.77413594    -0.59770
O1026       O  0.45673345  0.70498498  0.72252150    -0.52890
C1027       C  0.47774768  0.72249554  0.73258742     0.72880
Zr1028     Zr  0.46733122  0.72309317  0.85262442     2.54710
O1029       O  0.46452236  0.78051221  0.84658592    -0.80330
O1030       O  0.01755035  0.72315935  0.84650722    -0.93750
Zr1031     Zr  0.38648434  0.72054878  0.86730800     2.64680
O1032       O  0.38864057  0.77815597  0.87073367    -0.98700
O1033       O  0.33626684  0.72151821  0.86920698    -0.80760
O1034       O  0.42894366  0.72524183  0.90533005    -0.84120
O1035       O  0.42481055  0.72258025  0.81414682    -2.18830
O1036       O  0.48678340  0.61995475  0.79058978    -0.67510
O1037       O  0.45880609  0.64054642  0.73436243    -0.52080
C1038       C  0.47974722  0.62488378  0.74871737     0.71260
O1039       O  0.39710875  0.60336218  0.94299894    -0.60420
O1040       O  0.40701171  0.64096593  0.99804527    -0.52400
C1041       C  0.39710958  0.61437546  0.98506723     0.73060
O1042       O  0.37420207  0.61277863  0.78635204    -0.71820
O1043       O  0.39503637  0.64006311  0.72764196    -0.50490
C1044       C  0.37726861  0.61982205  0.74253887     0.74440
O1045       O  0.48382150  0.61810803  0.94250934    -0.67140
O1046       O  0.46280166  0.64943281  0.99722774    -0.54340
C1047       C  0.47986331  0.62789870  0.98451325     0.72830
Zr1048     Zr  0.46926913  0.63061103  0.86444080     2.77540
O1049       O  0.47056007  0.57288351  0.86287092    -0.97890
O1050       O  0.01934847  0.63345966  0.86945669    -0.78710
Zr1051     Zr  0.38889551  0.62704691  0.86653348     2.70070
O1052       O  0.37709984  0.57100215  0.86316755    -0.79960
O1053       O  0.34017151  0.63302340  0.88469262    -0.99050
Zr1054     Zr  0.43040289  0.67874875  0.95145068     2.21500
Zr1055     Zr  0.42553784  0.67378484  0.77238568     2.11130
O1056       O  0.42845575  0.62658768  0.81855144    -2.47730
O1057       O  0.42989184  0.62971767  0.91051437    -0.79750
O1058       O  0.46751784  0.67472680  0.81359897    -0.71950
O1059       O  0.38742821  0.67408767  0.91238943    -2.32910
O1060       O  0.47059478  0.67905759  0.90374980    -2.29120
O1061       O  0.38590445  0.67338521  0.82167488    -0.73710
H1062       H  0.42369074  0.74054168  0.79339872     0.78290
H1063       H  0.37217215  0.67285766  0.93422175     0.79370
H1064       H  0.42884113  0.60775840  0.79919088     0.81600
H1065       H  0.48728570  0.67993379  0.92192958     0.79210
H1066       H  0.33090866  0.70707061  0.89493769     0.42240
H1067       H  0.33434292  0.65152665  0.86606776     0.41210
H1068       H  0.39504951  0.55997243  0.86522976     0.40890
H1069       H  0.46107973  0.56672640  0.83363057     0.38820
H1070       H  0.02481753  0.64992500  0.84659520     0.41960
H1071       H  0.02398368  0.70967581  0.87249704     0.36740
H1072       H  0.45525900  0.78740185  0.87590360     0.42860
H1073       H  0.39782218  0.78446541  0.84113896     0.39270
H1074       H  0.49017691  0.56763562  0.85697507     0.44190
H1075       H  0.02327798  0.74491423  0.85527361     0.42910
H1076       H  0.36927961  0.78507705  0.86710136     0.43050
H1077       H  0.33141179  0.61473110  0.86884666     0.43410
O1078       O  0.21003249  0.99256740  0.95658935    -0.75460
O1079       O  0.24475289  0.96203569  0.92564993    -0.54370
C1080       C  0.23407274  0.98141394  0.95711262     0.78270
O1081       O  0.13158316  0.86880399  0.94244230    -0.60060
O1082       O  0.09539366  0.89003875  0.90234338    -0.53090
C1083       C  0.10601321  0.87316995  0.93482274     0.70280
O1084       O  0.22207108  0.87300245  0.95393582    -0.74620
O1085       O  0.25691351  0.89629712  0.91204605    -0.55190
C1086       C  0.24769557  0.87910583  0.94658836     0.76280
O1087       O  0.12836126  0.99475036  0.93555707    -0.59770
O1088       O  0.09664269  0.95732911  0.91727853    -0.52890
C1089       C  0.10545513  0.98085955  0.94285477     0.72880
Zr1090     Zr  0.17251676  0.97406374  0.91613515     2.54710
O1091       O  0.17192968  0.96126415  0.99919352    -0.80330
O1092       O  0.17294954  0.53136105  0.91358113    -0.93750
Zr1093     Zr  0.17713168  0.88238094  0.91984508     2.64680
O1094       O  0.17698402  0.88422700  0.00502576    -0.98700
O1095       O  0.17943241  0.82475773  0.91693131    -0.80760
O1096       O  0.20185829  0.92982712  0.91853883    -0.84120
O1097       O  0.14737287  0.92703180  0.91966196    -2.18830
O1098       O  0.13130351  0.98651019  0.76030543    -0.67510
O1099       O  0.09553048  0.96368022  0.80065543    -0.52080
C1100       C  0.10583195  0.98166594  0.76863786     0.71260
O1101       O  0.22011209  0.86872756  0.75951995    -0.60420
O1102       O  0.25545106  0.89234247  0.79969356    -0.52400
C1103       C  0.24551641  0.87409634  0.76728114     0.73060
O1104       O  0.13093468  0.86710975  0.75363227    -0.71820
O1105       O  0.09568578  0.89238625  0.79154053    -0.50490
C1106       C  0.10522695  0.87345163  0.75915225     0.74440
O1107       O  0.21971548  0.98365039  0.74954482    -0.67140
O1108       O  0.25534432  0.96432746  0.79272896    -0.54340
C1109       C  0.24537926  0.98031127  0.75748809     0.72830
Zr1110     Zr  0.17611884  0.97247457  0.78418815     2.77540
O1111       O  0.17630125  0.97095474  0.69895186    -0.97890
O1112       O  0.17811409  0.53001175  0.78995521    -0.78710
Zr1113     Zr  0.17521125  0.88071612  0.78669704     2.70070
O1114       O  0.17745355  0.87732594  0.70167753    -0.79960
O1115       O  0.17212345  0.82410731  0.79955228    -0.99050
Zr1116     Zr  0.23202848  0.92965483  0.85372135     2.21500
Zr1117     Zr  0.11909829  0.92648821  0.85144643     2.11130
O1118       O  0.14828363  0.92660375  0.78360832    -2.47730
O1119       O  0.20306585  0.92667315  0.78647520    -0.79750
O1120       O  0.14565429  0.97411009  0.84888006    -0.71950
O1121       O  0.20493421  0.88157361  0.85246335    -2.32910
O1122       O  0.20349651  0.97591816  0.85168677    -2.29120
O1123       O  0.14760664  0.88000834  0.85407050    -0.73710
H1124       H  0.13660960  0.92721044  0.94820992     0.78290
H1125       H  0.21659868  0.86304357  0.85284181     0.79370
H1126       H  0.13762050  0.92647044  0.75521847     0.81600
H1127       H  0.21438450  0.99511581  0.85194731     0.79210
H1128       H  0.19793300  0.81992993  0.90391642     0.42240
H1129       H  0.16020501  0.82164835  0.82755736     0.41210
H1130       H  0.18370776  0.89860948  0.69164244     0.40890
H1131       H  0.15912719  0.95978696  0.69013120     0.38820
H1132       H  0.16177509  0.53594229  0.80901619     0.41960
H1133       H  0.19217320  0.53733100  0.90566792     0.36740
H1134       H  0.18735574  0.94635963  0.00415265     0.42860
H1135       H  0.15806961  0.89054192  0.01431909     0.39270
H1136       H  0.17331453  0.99325096  0.68965680     0.44190
H1137       H  0.17037526  0.53779688  0.94665882     0.42910
H1138       H  0.17858056  0.86177459  0.01445377     0.43050
H1139       H  0.16055749  0.81641894  0.77344152     0.43410
C1140       C  0.17646574  0.67316489  0.86601017    -0.02660
C1141       C  0.17473922  0.92789715  0.35360964    -0.02660
C1142       C  0.43163103  0.67713618  0.34733563    -0.02660
O1143       O  0.49301417  0.61837261  0.67328108    -0.75460
O1144       O  0.01606209  0.59240794  0.73113329    -0.54370
C1145       C  0.99746277  0.61109940  0.71547645     0.78270
O1146       O  0.49192611  0.49180501  0.54191855    -0.60060
O1147       O  0.01819287  0.51523688  0.48459146    -0.53090
C1148       C  0.49847778  0.49688781  0.49949007     0.70280
O1149       O  0.48944283  0.50203505  0.69283387    -0.74620
O1150       O  0.01722925  0.52539337  0.74687204    -0.55190
C1151       C  0.99676504  0.50777759  0.73516476     0.76280
O1152       O  0.49699285  0.61542835  0.52474876    -0.59770
O1153       O  0.02049781  0.58581541  0.47094041    -0.52890
C1154       C  0.00157120  0.60615947  0.48263879     0.72880
Zr1155     Zr  0.01332842  0.60380010  0.60235872     2.54710
O1156       O  0.46318660  0.60532837  0.59909477    -0.80330
O1157       O  0.01803497  0.66124185  0.59982952    -0.93750
Zr1158     Zr  0.00714492  0.51182855  0.61409106     2.64680
O1159       O  0.45740506  0.51932141  0.61324578    -0.98700
O1160       O  0.00306242  0.95536895  0.62745055    -0.80760
O1161       O  0.00914658  0.55993765  0.65388248    -0.84120
O1162       O  0.01038168  0.55562923  0.56235822    -2.18830
O1163       O  0.11054779  0.61381579  0.53861773    -0.67510
O1164       O  0.08646248  0.58744031  0.48170275    -0.52080
C1165       C  0.10552616  0.60665662  0.49610289     0.71260
O1166       O  0.09619641  0.49066606  0.69209800    -0.60420
O1167       O  0.07177449  0.51795563  0.74792017    -0.52400
C1168       C  0.08905440  0.49688383  0.73463018     0.73060
O1169       O  0.10772559  0.49207361  0.53395104    -0.71820
O1170       O  0.08610831  0.51949186  0.47597161    -0.50490
C1171       C  0.10466093  0.49998219  0.49071844     0.74440
O1172       O  0.11045503  0.60860127  0.69116079    -0.67140
O1173       O  0.08248884  0.58675857  0.74648187    -0.54340
C1174       C  0.10392325  0.60283687  0.73395419     0.72830
Zr1175     Zr  0.09332793  0.59792240  0.61303433     2.77540
O1176       O  0.14358468  0.59600278  0.61251465    -0.97890
O1177       O  0.09104579  0.65479331  0.62495634    -0.78710
Zr1178     Zr  0.08802695  0.50461244  0.61128509     2.70070
O1179       O  0.13788230  0.50115317  0.61798429    -0.79960
O1180       O  0.08325794  0.94721902  0.60736168    -0.99050
Zr1181     Zr  0.04928720  0.55632068  0.70024963     2.21500
Zr1182     Zr  0.05199764  0.55247251  0.51793665     2.11130
O1183       O  0.09159674  0.55116296  0.56699307    -2.47730
O1184       O  0.09124303  0.55131663  0.65762817    -0.79750
O1185       O  0.05512822  0.60104162  0.56076578    -0.71950
O1186       O  0.04740639  0.50794507  0.65761337    -2.32910
O1187       O  0.05168589  0.60322033  0.65433785    -2.29120
O1188       O  0.04758420  0.50616293  0.56587888    -0.73710
H1189       H  0.49434980  0.55578667  0.54252609     0.78290
H1190       H  0.04561421  0.98990729  0.67804966     0.79370
H1191       H  0.10835980  0.55053727  0.54861697     0.81600
H1192       H  0.05196004  0.62193055  0.67395124     0.79210
H1193       H  0.01360747  0.95090772  0.65619316     0.42240
H1194       H  0.07272490  0.94319352  0.57837259     0.41210
H1195       H  0.14376761  0.52297547  0.62605572     0.40890
H1196       H  0.14869175  0.58247536  0.58541042     0.38820
H1197       H  0.07222587  0.66067709  0.61517915     0.41960
H1198       H  0.02118108  0.66775778  0.63270204     0.36740
H1199       H  0.45700408  0.58599069  0.61565554     0.42860
H1200       H  0.45348306  0.52862444  0.58226893     0.39270
H1201       H  0.14962704  0.61761305  0.60370285     0.44190
H1202       H  0.49924719  0.66898479  0.59288089     0.42910
H1203       H  0.44979519  0.49755497  0.61163699     0.43050
H1204       H  0.10207027  0.93942307  0.60018066     0.43410
O1205       O  0.49689768  0.86605699  0.02257572    -0.75460
O1206       O  0.01385461  0.83324115  0.96627628    -0.54370
C1207       C  0.99745487  0.85516614  0.98052041     0.78270
O1208       O  0.11377198  0.86373077  0.17166164    -0.60060
O1209       O  0.08745397  0.84196655  0.22995704    -0.53090
C1210       C  0.10777236  0.85885028  0.21518141     0.70280
O1211       O  0.09862894  0.86377054  0.01191304    -0.74620
O1212       O  0.06968136  0.84099103  0.95875282    -0.55190
C1213       C  0.08943017  0.85922047  0.97028641     0.76280
O1214       O  0.50699999  0.87688992  0.17538277    -0.59770
O1215       O  0.02098404  0.83926547  0.22711127    -0.52890
C1216       C  0.00608397  0.86287422  0.21462650     0.72880
Zr1217     Zr  0.01352123  0.85446528  0.10075844     2.54710
O1218       O  0.00448125  0.91094422  0.09356316    -0.80090
O1219       O  0.46480359  0.84516392  0.11744464    -0.93750
Zr1220     Zr  0.09435802  0.85121576  0.09418898     2.64680
O1221       O  0.09750549  0.90875200  0.09384003    -0.98700
O1222       O  0.14415363  0.84808681  0.08492549    -0.80760
O1223       O  0.05248243  0.85321222  0.05204976    -0.84120
O1224       O  0.05557145  0.85457724  0.14361062    -2.18830
O1225       O  0.49832480  0.75093515  0.18939862    -0.67510
O1226       O  0.02751763  0.77373230  0.24159988    -0.52080
C1227       C  0.00712200  0.75539888  0.23097160     0.71260
O1228       O  0.09078073  0.73562837  0.01457056    -0.60420
O1229       O  0.08093917  0.77364141  0.96208043    -0.52400
C1230       C  0.09396179  0.74850980  0.97430022     0.73060
O1231       O  0.11136440  0.74492774  0.16468150    -0.71820
O1232       O  0.09031536  0.77286402  0.22366658    -0.50490
C1233       C  0.10806713  0.75282670  0.20740120     0.74440
O1234       O  0.48830563  0.75001769  0.04060910    -0.67140
O1235       O  0.01689482  0.76592283  0.98123213    -0.54340
C1236       C  0.99578588  0.75158828  0.99813956     0.72830
Zr1237     Zr  0.01066503  0.76210624  0.10996395     2.77540
O1238       O  0.01337985  0.70452760  0.10866430    -0.97890
O1239       O  0.46084039  0.76016088  0.12087874    -0.78710
Zr1240     Zr  0.09063364  0.75801536  0.09273898     2.70070
O1241       O  0.09280867  0.70072028  0.10124529    -0.79960
O1242       O  0.13987581  0.76099444  0.07601535    -0.99050
Zr1243     Zr  0.04827615  0.80447760  0.00982496     2.21500
Zr1244     Zr  0.05590046  0.80728545  0.18979389     2.11130
O1245       O  0.05334074  0.75899125  0.14717973    -2.47730
O1246       O  0.04770548  0.75761875  0.05554459    -0.79750
O1247       O  0.01307715  0.80984433  0.15084764    -0.71950
O1248       O  0.09191166  0.80444064  0.04788844    -2.32910
O1249       O  0.00918080  0.80685785  0.06020800    -2.29120
O1250       O  0.09457669  0.80459108  0.13867476    -0.73710
H1251       H  0.05722651  0.87329370  0.16298628     0.78290
H1252       H  0.10708376  0.80369662  0.02582997     0.79370
H1253       H  0.05388790  0.74077689  0.16752678     0.81600
H1254       H  0.49211306  0.80730652  0.04311390     0.79210
H1255       H  0.14717449  0.83020134  0.06297389     0.42240
H1256       H  0.14708868  0.77621762  0.09940093     0.41210
H1257       H  0.07401341  0.69323680  0.09357754     0.40890
H1258       H  0.01963961  0.69913810  0.07654039     0.38820
H1259       H  0.45634118  0.77928175  0.13962098     0.41960
H1260       H  0.45799251  0.83170117  0.09156316     0.36740
H1261       H  0.01606383  0.91785751  0.06681609     0.42860
H1262       H  0.08822742  0.91531693  0.12326426     0.39270
H1263       H  0.49393048  0.69738944  0.10988865     0.44190
H1264       H  0.45582540  0.86595217  0.11284784     0.42910
H1265       H  0.11726286  0.91332514  0.09920120     0.43050
H1266       H  0.14720904  0.74023730  0.08604499     0.43410
O1267       O  0.36032727  0.00583799  0.03010483    -0.75460
O1268       O  0.39882290  0.52319634  0.05253036    -0.54370
C1269       C  0.38578831  0.50628841  0.02213553     0.78270
O1270       O  0.26528255  0.60760487  0.00625660    -0.60060
O1271       O  0.22922234  0.58170455  0.04045637    -0.53090
C1272       C  0.23956710  0.60199164  0.01061967     0.70280
O1273       O  0.35427011  0.60054055  0.00479836    -0.74620
O1274       O  0.38873518  0.58612939  0.05441750    -0.55190
C1275       C  0.37938546  0.59879311  0.01709033     0.76280
O1276       O  0.27485367  0.98351137  0.99515944    -0.59770
O1277       O  0.23876459  0.51036980  0.02973591    -0.52890
C1278       C  0.25004265  0.49222089  0.99711510     0.72880
Zr1279     Zr  0.31235825  0.50142524  0.03660068     2.54710
O1280       O  0.31569462  0.50538528  0.95171828    -0.80330
O1281       O  0.31979754  0.94434866  0.03624120    -0.93750
Zr1282     Zr  0.30940390  0.59330333  0.03613024     2.64680
O1283       O  0.31003087  0.59266940  0.95084355    -0.98700
O1284       O  0.31144042  0.65086203  0.04222186    -0.80760
O1285       O  0.33822992  0.54852354  0.03732984    -0.84120
O1286       O  0.28351210  0.54650957  0.03469489    -2.18830
O1287       O  0.26358682  0.98939813  0.20379603    -0.67510
O1288       O  0.22840103  0.51242587  0.16422165    -0.52080
C1289       C  0.23801512  0.49566515  0.19942067     0.71260
O1290       O  0.34970274  0.61066207  0.20361095    -0.60420
O1291       O  0.38579389  0.58559178  0.16731097    -0.52400
C1292       C  0.37544525  0.60461829  0.19853597     0.73060
O1293       O  0.26069633  0.60810541  0.19375222    -0.71820
O1294       O  0.22655823  0.58241211  0.15325651    -0.50490
C1295       C  0.23542347  0.60159621  0.18571625     0.74440
O1296       O  0.35067435  0.99274536  0.19996000    -0.67140
O1297       O  0.38737399  0.51588988  0.16278283    -0.54340
C1298       C  0.37615183  0.49864093  0.19455916     0.72830
Zr1299     Zr  0.30705427  0.50358576  0.16955978     2.77540
O1300       O  0.31160458  0.51256762  0.25337524    -0.97890
O1301       O  0.30717919  0.94590911  0.16975235    -0.78710
Zr1302     Zr  0.30646453  0.59552913  0.16876466     2.70070
O1303       O  0.30288231  0.59686202  0.25381049    -0.79960
O1304       O  0.30639796  0.65259655  0.15698240    -0.99050
Zr1305     Zr  0.36551585  0.55036554  0.10705232     2.21500
Zr1306     Zr  0.25171029  0.54554621  0.09900284     2.11130
O1307       O  0.27950968  0.54884242  0.16757193    -2.47730
O1308       O  0.33428865  0.55004385  0.17188602    -0.79750
O1309       O  0.28069590  0.49947416  0.10069821    -0.71950
O1310       O  0.33679383  0.59681628  0.10403918    -2.32910
O1311       O  0.33836697  0.50181401  0.10589455    -2.29120
O1312       O  0.27903561  0.59347447  0.10074337    -0.73710
H1313       H  0.27407855  0.54696984  0.00512266     0.78290
H1314       H  0.34764971  0.61603811  0.10417894     0.79370
H1315       H  0.26813651  0.54905036  0.19540148     0.81600
H1316       H  0.34967859  0.98305366  0.10798925     0.79210
H1317       H  0.33128824  0.65619353  0.03987907     0.42240
H1318       H  0.28817395  0.65724222  0.14324097     0.41210
H1319       H  0.31503479  0.57956273  0.26452875     0.40890
H1320       H  0.29422194  0.52275444  0.26367862     0.38820
H1321       H  0.30093663  0.93979902  0.13804944     0.41960
H1322       H  0.33972623  0.94180966  0.04243770     0.36740
H1323       H  0.32790887  0.52382043  0.94602059     0.42860
H1324       H  0.29732254  0.57540188  0.94159277     0.39270
H1325       H  0.31155066  0.99126353  0.26760193     0.44190
H1326       H  0.31769938  0.93793914  0.00307375     0.42910
H1327       H  0.30060578  0.61235717  0.94127831     0.43050
H1328       H  0.30536846  0.66151480  0.18904227     0.43410
C1329       C  0.30246439  0.80496065  0.09547261    -0.02660
C1330       C  0.04809827  0.79968628  0.60709972    -0.02660
O1331       O  0.12261119  0.73836044  0.43328340    -0.75460
O1332       O  0.14606785  0.70984006  0.48746043    -0.54370
C1333       C  0.12762785  0.73074264  0.47592421     0.78270
O1334       O  0.11998100  0.61821740  0.26734027    -0.60060
O1335       O  0.14186208  0.64505133  0.20942632    -0.53090
C1336       C  0.12386293  0.62457894  0.22389367     0.70280
O1337       O  0.11793144  0.61508225  0.41906642    -0.74620
O1338       O  0.14269436  0.64042321  0.47606605    -0.55190
C1339       C  0.12325692  0.62174476  0.46160976     0.76280
O1340       O  0.12133686  0.74336205  0.28288814    -0.59770
O1341       O  0.14272475  0.71600858  0.22346773    -0.52890
C1342       C  0.12545804  0.73659632  0.23993771     0.72880
Zr1343     Zr  0.13790096  0.72377812  0.35459855     2.54710
O1344       O  0.08779936  0.71977459  0.35705635    -0.80330
O1345       O  0.14064776  0.78135445  0.35876415    -0.93750
Zr1346     Zr  0.13551300  0.63138593  0.34532999     2.64680
O1347       O  0.08529854  0.63411940  0.34695226    -0.98700
O1348       O  0.13612480  0.57410120  0.33680102    -0.80760
O1349       O  0.13660920  0.67610664  0.39606842    -0.84120
O1350       O  0.13521462  0.67904450  0.30356153    -2.18830
O1351       O  0.23394461  0.73573034  0.26542273    -0.67510
O1352       O  0.20776689  0.71184156  0.20945713    -0.52080
C1353       C  0.22779668  0.73029620  0.22232098     0.71260
O1354       O  0.23309046  0.61299114  0.42619539    -0.60420
O1355       O  0.20926372  0.63983920  0.48332756    -0.52400
C1356       C  0.22799362  0.61985435  0.46995843     0.73060
O1357       O  0.22375651  0.61104198  0.26360156    -0.71820
O1358       O  0.20022242  0.63836173  0.20744359    -0.50490
C1359       C  0.21730163  0.61689095  0.22056938     0.74440
O1360       O  0.23732050  0.73461628  0.41811314    -0.67140
O1361       O  0.21279647  0.70943542  0.47590780    -0.54340
C1362       C  0.23213665  0.72816199  0.46094273     0.72830
Zr1363     Zr  0.21842976  0.72053905  0.34390260     2.77540
O1364       O  0.26857107  0.71712910  0.34345466    -0.97890
O1365       O  0.21610941  0.77817549  0.34453871    -0.78710
Zr1366     Zr  0.21620344  0.62731133  0.34573002     2.70070
O1367       O  0.26618862  0.62947058  0.33786529    -0.79960
O1368       O  0.21509168  0.56965849  0.34901997    -0.99050
Zr1369     Zr  0.17774581  0.67496604  0.44047730     2.21500
Zr1370     Zr  0.17519842  0.67748461  0.25413738     2.11130
O1371       O  0.21702961  0.67387387  0.29825990    -2.47730
O1372       O  0.21767075  0.67414761  0.39087198    -0.79750
O1373       O  0.17672891  0.72385590  0.30249740    -0.71950
O1374       O  0.17575261  0.62799324  0.39255531    -2.32910
O1375       O  0.17960443  0.72267779  0.39587333    -2.29120
O1376       O  0.17567871  0.62975341  0.29925115    -0.73710
H1377       H  0.11851213  0.67999770  0.28544722     0.78290
H1378       H  0.17507313  0.60915951  0.41165256     0.79370
H1379       H  0.23283570  0.67312295  0.27751692     0.81600
H1380       H  0.18074156  0.74103494  0.41609490     0.79210
H1381       H  0.15265694  0.56958420  0.31738829     0.42240
H1382       H  0.20553284  0.56294275  0.32012113     0.41210
H1383       H  0.27206853  0.64505211  0.36182653     0.40890
H1384       H  0.27312778  0.70191262  0.31810056     0.38820
H1385       H  0.20019213  0.78333158  0.32447270     0.41960
H1386       H  0.15161234  0.78589933  0.38710204     0.36740
H1387       H  0.08390499  0.70175437  0.37819723     0.42860
H1388       H  0.08027481  0.64779382  0.32028254     0.39270
H1389       H  0.27497703  0.73792713  0.33165794     0.44190
H1390       H  0.12172297  0.78825049  0.36706618     0.42910
H1391       H  0.07909696  0.61263929  0.33764026     0.43050
H1392       H  0.23449819  0.56316289  0.34396586     0.43410
O1393       O  0.35992449  0.73447843  0.67531129    -0.75460
O1394       O  0.33761597  0.76163044  0.73384732    -0.54370
C1395       C  0.35549237  0.74164135  0.71804005     0.78270
O1396       O  0.36158974  0.86112684  0.53976970    -0.60060
O1397       O  0.33655107  0.83653260  0.48227781    -0.53090
C1398       C  0.35578549  0.85537547  0.49732172     0.70280
O1399       O  0.35816892  0.86021119  0.69047864    -0.74620
O1400       O  0.33717169  0.83111080  0.74669273    -0.55190
C1401       C  0.35418240  0.85312744  0.73384573     0.76280
O1402       O  0.35918060  0.73791866  0.52424433    -0.59770
O1403       O  0.33465361  0.76469874  0.46928458    -0.52890
C1404       C  0.35413463  0.74519269  0.48145237     0.72880
Zr1405     Zr  0.34206039  0.75094143  0.60258759     2.54710
O1406       O  0.39227770  0.75139195  0.60005175    -0.80330
O1407       O  0.33766934  0.69356580  0.59890991    -0.93750
Zr1408     Zr  0.34460944  0.84329779  0.61207536     2.64680
O1409       O  0.39438101  0.83598632  0.61606261    -0.98700
O1410       O  0.34593088  0.90095049  0.61245855    -0.80760
O1411       O  0.34477590  0.79568531  0.65368604    -0.84120
O1412       O  0.34334253  0.79856145  0.56108958    -2.18830
O1413       O  0.24426158  0.73774657  0.53806085    -0.67510
O1414       O  0.26851107  0.76335052  0.48025069    -0.52080
C1415       C  0.24959007  0.74403822  0.49520632     0.71260
O1416       O  0.25548664  0.86286351  0.69019603    -0.60420
O1417       O  0.28005693  0.83731065  0.74695095    -0.52400
C1418       C  0.26261921  0.85800183  0.73307822     0.73060
O1419       O  0.24606410  0.86164554  0.52868167    -0.71820
O1420       O  0.27047472  0.83540909  0.47184125    -0.50490
C1421       C  0.25139388  0.85535402  0.48481334     0.74440
O1422       O  0.24660296  0.73730741  0.69135446    -0.67140
O1423       O  0.27194416  0.76364577  0.74624046    -0.54340
C1424       C  0.25283616  0.74370691  0.73417222     0.72830
Zr1425     Zr  0.26147412  0.75388180  0.61271403     2.77540
O1426       O  0.21143213  0.75817160  0.61735430    -0.97890
O1427       O  0.26329487  0.69628879  0.61321182    -0.78710
Zr1428     Zr  0.26359694  0.84705646  0.60873153     2.70070
O1429       O  0.21355348  0.84556375  0.61568745    -0.79960
O1430       O  0.26564735  0.90460095  0.60655320    -0.99050
Zr1431     Zr  0.30444406  0.79794321  0.70147363     2.21500
Zr1432     Zr  0.30231881  0.79963345  0.51543332     2.11130
O1433       O  0.26203184  0.79996942  0.56457882    -2.47730
O1434       O  0.26266748  0.80098268  0.65735454    -0.79750
O1435       O  0.30043857  0.75206168  0.56076057    -0.71950
O1436       O  0.30403400  0.84538023  0.65585086    -2.32910
O1437       O  0.30308106  0.75103834  0.65424146    -2.29120
O1438       O  0.30457843  0.84622694  0.56363101    -0.73710
H1439       H  0.35963851  0.79848487  0.54148598     0.78290
H1440       H  0.30530401  0.86410766  0.67524058     0.79370
H1441       H  0.24554455  0.80032950  0.54585957     0.81600
H1442       H  0.30304184  0.73225213  0.67344793     0.79210
H1443       H  0.32822727  0.90736935  0.62708176     0.42240
H1444       H  0.27543359  0.90939246  0.57687622     0.41210
H1445       H  0.20979103  0.82959142  0.64021741     0.40890
H1446       H  0.20621017  0.77139222  0.59029449     0.38820
H1447       H  0.27210172  0.69069655  0.58294869     0.41960
H1448       H  0.32944858  0.68751302  0.62941615     0.36740
H1449       H  0.39775856  0.76818253  0.62245959     0.42860
H1450       H  0.39960735  0.82568565  0.58608917     0.39270
H1451       H  0.20456014  0.73669425  0.60952128     0.44190
H1452       H  0.35685533  0.68565541  0.60023347     0.42910
H1453       H  0.40212363  0.85766316  0.61383463     0.43050
H1454       H  0.24638763  0.91128255  0.60106186     0.43410
C1455       C  0.30237110  0.55207290  0.60637546    -0.02660
C1456       C  0.04912500  0.54660360  0.09965064    -0.02660
C1457       C  0.09124561  0.58600566  0.11405315    -0.26490
C1458       C  0.07041643  0.56570874  0.13297804    -0.14560
C1459       C  0.07121126  0.56347888  0.18326949     0.36070
C1460       C  0.08663294  0.58492675  0.21004883    -0.25940
C1461       C  0.10592969  0.60592693  0.19052947    -0.15180
C1462       C  0.10893906  0.60541631  0.14149227     0.37150
N1463       N  0.13051176  0.62351681  0.11943041    -0.89430
H1464       H  0.09658513  0.58438271  0.07806211     0.18270
H1465       H  0.08474819  0.58289258  0.24772228     0.18260
N1466       N  0.05926606  0.53765737  0.20877344    -0.88460
H1467       H  0.12964202  0.62126445  0.08301204     0.35640
H1468       H  0.14932510  0.61371320  0.12954270     0.40730
H1469       H  0.04630164  0.54689248  0.23490172     0.40350
H1470       H  0.07506710  0.52519232  0.22521761     0.35240
C1471       C  0.25540219  0.55965032  0.56113260    -0.26490
C1472       C  0.28063815  0.57343841  0.57702788    -0.14560
C1473       C  0.28408164  0.60598179  0.56368514     0.36070
C1474       C  0.26723689  0.61982868  0.52835973    -0.25940
C1475       C  0.24492857  0.60376290  0.50785085    -0.15180
C1476       C  0.23837248  0.57356434  0.52646705     0.37150
N1477       N  0.21479118  0.55584933  0.51080829    -0.89430
H1478       H  0.24996757  0.53593075  0.57219875     0.18270
H1479       H  0.27117853  0.64399726  0.51748788     0.18260
N1480       N  0.30295960  0.62617351  0.58794436    -0.88460
H1481       H  0.22204519  0.53527565  0.49435247     0.35640
H1482       H  0.20353736  0.56823130  0.48586073     0.40730
H1483       H  0.29506470  0.62972911  0.62171335     0.40350
H1484       H  0.30417936  0.64840828  0.57218774     0.35240
C1485       C  0.07852731  0.74916722  0.58039942    -0.26490
C1486       C  0.07102732  0.78172440  0.57437710    -0.14560
C1487       C  0.08268823  0.79559627  0.53229015     0.36070
C1488       C  0.10216446  0.77920487  0.50406561    -0.25940
C1489       C  0.11022490  0.74790804  0.51257934    -0.15180
C1490       C  0.09756497  0.73278784  0.55098043     0.37150
N1491       N  0.10216065  0.69985562  0.55923197    -0.89430
H1492       H  0.06887196  0.73447755  0.60609933     0.18270
H1493       H  0.11027194  0.79106044  0.47329734     0.18260
N1494       N  0.07375737  0.82577711  0.51504425    -0.88460
H1495       H  0.12311414  0.69642212  0.56571429     0.35640
H1496       H  0.09673622  0.68708478  0.52921496     0.40730
H1497       H  0.06424731  0.82199986  0.48275611     0.40350
H1498       H  0.09106226  0.83992280  0.50839199     0.35240
C1499       C  0.29103982  0.76713020  0.16241168    -0.26490
C1500       C  0.28021319  0.78506575  0.12481567    -0.14560
C1501       C  0.25107999  0.78051815  0.11634365     0.36070
C1502       C  0.23483884  0.76147764  0.14688006    -0.25940
C1503       C  0.24590343  0.74649515  0.18628722    -0.15180
C1504       C  0.27462725  0.74884862  0.19304714     0.37150
N1505       N  0.28727400  0.73250371  0.23136428    -0.89430
H1506       H  0.31298268  0.76813539  0.16896231     0.18270
H1507       H  0.21292212  0.75928651  0.14044463     0.18260
N1508       N  0.23661715  0.79344104  0.07725809    -0.88460
H1509       H  0.30854844  0.73650974  0.23184527     0.35640
H1510       H  0.28448962  0.70820993  0.22585620     0.40730
H1511       H  0.24745063  0.79106919  0.04592845     0.40350
H1512       H  0.23104048  0.81680548  0.08382918     0.35240
C1513       C  0.41589148  0.62402374  0.30845865    -0.26490
C1514       C  0.41632043  0.65762277  0.30816333    -0.14560
C1515       C  0.40466778  0.67285947  0.26811806     0.36070
C1516       C  0.39329723  0.65459534  0.23163859    -0.25940
C1517       C  0.39349356  0.62142602  0.23231137    -0.15180
C1518       C  0.40538683  0.60599998  0.27100130     0.37150
N1519       N  0.40640829  0.57206505  0.27447792    -0.89430
H1520       H  0.42390714  0.61101439  0.33784939     0.18270
H1521       H  0.38361124  0.66645590  0.20248085     0.18260
N1522       N  0.40517589  0.70687306  0.26365307    -0.88460
H1523       H  0.42715647  0.56549636  0.27581966     0.35640
H1524       H  0.39821839  0.56089257  0.24507989     0.40730
H1525       H  0.39270840  0.71685564  0.28964317     0.40350
H1526       H  0.39693976  0.71395644  0.23165228     0.35240
C1527       C  0.46569996  0.68845753  0.27933842    -0.26490
C1528       C  0.45245951  0.70037647  0.32030484    -0.14560
C1529       C  0.45784156  0.73325486  0.32962377     0.36070
C1530       C  0.47835144  0.74996684  0.30389473    -0.25940
C1531       C  0.49242656  0.73603727  0.26643275    -0.15180
C1532       C  0.48625505  0.70457213  0.25476807     0.37150
N1533       N  0.00016029  0.68937384  0.21601148    -0.89430
H1534       H  0.45980844  0.66585755  0.26476580     0.18270
H1535       H  0.48194836  0.77471561  0.31060766     0.18260
N1536       N  0.44100336  0.75127207  0.36083657    -0.88460
H1537       H  0.99312517  0.66615605  0.21122399     0.35640
H1538       H  0.02104460  0.68775510  0.22447051     0.40730
H1539       H  0.43079213  0.76867195  0.34173861     0.40350
H1540       H  0.45364717  0.76199770  0.38580258     0.35240
C1541       C  0.43933248  0.64437137  0.42364688    -0.26490
C1542       C  0.44973425  0.65385279  0.37934019    -0.14560
C1543       C  0.47610039  0.63993210  0.36692221     0.36070
C1544       C  0.99265063  0.62530032  0.40112118    -0.25940
C1545       C  0.48309278  0.62022554  0.44644479    -0.15180
C1546       C  0.45549978  0.62848087  0.45681646     0.37150
N1547       N  0.44337493  0.62024702  0.50099070    -0.89430
H1548       H  0.41817456  0.64917527  0.43343687     0.18270
H1549       H  0.01304106  0.61681193  0.39174114     0.18260
N1550       N  0.98532704  0.63689987  0.31947282    -0.88460
H1551       H  0.42618010  0.60590393  0.49471056     0.35640
H1552       H  0.43654601  0.64108756  0.51724512     0.40730
H1553       H  0.47325469  0.61938221  0.30370632     0.40350
H1554       H  0.00572719  0.62901823  0.31718202     0.35240
C1555       C  0.41909844  0.71096256  0.42141958    -0.26490
C1556       C  0.40947003  0.69546657  0.38037547    -0.14560
C1557       C  0.37977774  0.69513541  0.37601480     0.36070
C1558       C  0.36256367  0.71330169  0.40662360    -0.25940
C1559       C  0.37302729  0.72987643  0.44523455    -0.15180
C1560       C  0.40174963  0.72790668  0.45273286     0.37150
N1561       N  0.41372329  0.74343171  0.49238668    -0.89430
H1562       H  0.44094422  0.71032992  0.42906990     0.18270
H1563       H  0.34042993  0.71264074  0.40176691     0.18260
N1564       N  0.36612074  0.67493487  0.34315716    -0.88460
H1565       H  0.42852343  0.75950857  0.48019374     0.35640
H1566       H  0.42380179  0.72632742  0.51233007     0.40730
H1567       H  0.35329230  0.68886513  0.32240767     0.40350
H1568       H  0.35364185  0.65908936  0.36177703     0.35240
C1569       C  0.16795933  0.88614435  0.29037449    -0.26490
C1570       C  0.15507519  0.90739441  0.32216694    -0.14560
C1571       C  0.12583881  0.91226843  0.31634712     0.36070
C1572       C  0.11126468  0.89468604  0.28296330    -0.25940
C1573       C  0.12462385  0.87470113  0.25128285    -0.15180
C1574       C  0.15329537  0.87045155  0.25463342     0.37150
N1575       N  0.16741223  0.84989122  0.22219393    -0.89430
H1576       H  0.19007682  0.88293091  0.29202153     0.18270
H1577       H  0.08928640  0.89865286  0.27939394     0.18260
N1578       N  0.11099608  0.93760622  0.33884228    -0.88460
H1579       H  0.18831620  0.84832181  0.23053784     0.35640
H1580       H  0.16653725  0.86036141  0.18915544     0.40730
H1581       H  0.10308577  0.95265430  0.31328843     0.40350
H1582       H  0.09386051  0.92798609  0.35607144     0.35240
C1583       C  0.19177595  0.97865442  0.23735552    -0.26490
C1584       C  0.22031141  0.98285720  0.24034731    -0.14560
C1585       C  0.23211162  0.97548346  0.28505040     0.36070
C1586       C  0.21562682  0.96408331  0.32268861    -0.25940
C1587       C  0.18895908  0.95213531  0.31617730    -0.15180
C1588       C  0.17615048  0.96425436  0.27420186     0.37150
N1589       N  0.14694722  0.96456307  0.26940045    -0.89430
H1590       H  0.18132950  0.48625775  0.20597989     0.18270
H1591       H  0.22455363  0.96289157  0.35717022     0.18260
N1592       N  0.26120391  0.97841892  0.29262247    -0.88460
H1593       H  0.14192798  0.45274337  0.23834311     0.35640
H1594       H  0.14054644  0.98812409  0.26642486     0.40730
H1595       H  0.27047135  0.95887393  0.27629907     0.40350
H1596       H  0.26594441  0.97630913  0.32811514     0.35240
C1597       C  0.12088258  0.95105994  0.45324784    -0.26490
C1598       C  0.12322025  0.98372295  0.45623049    -0.14560
C1599       C  0.14452431  0.49856673  0.43008579     0.36070
C1600       C  0.16093917  0.98042459  0.39840449    -0.25940
C1601       C  0.15768285  0.94707947  0.39260029    -0.15180
C1602       C  0.13744058  0.93277749  0.42316896     0.37150
N1603       N  0.13099819  0.89986406  0.42160906    -0.89430
H1604       H  0.10529864  0.93920465  0.47431328     0.18270
H1605       H  0.17659674  0.49300290  0.37884848     0.18260
N1606       N  0.15126414  0.53144722  0.43664834    -0.88460
H1607       H  0.11015323  0.89681241  0.41375578     0.35640
H1608       H  0.13383312  0.89077077  0.45524953     0.40730
H1609       H  0.13825530  0.54223917  0.46120526     0.40350
H1610       H  0.14810694  0.54286953  0.40493128     0.35240
C1611       C  0.22563306  0.90407393  0.37606146    -0.26490
C1612       C  0.19626211  0.90409794  0.38111700    -0.14560
C1613       C  0.18733309  0.87889972  0.41121328     0.36070
C1614       C  0.20482034  0.86661283  0.44702216    -0.25940
C1615       C  0.23353641  0.87157834  0.44715231    -0.15180
C1616       C  0.24398871  0.88876362  0.40791410     0.37150
N1617       N  0.27304736  0.89155816  0.39868837    -0.89430
H1618       H  0.23526295  0.91394928  0.34545392     0.18270
H1619       H  0.19642199  0.84942113  0.47133876     0.18260
N1620       N  0.16575688  0.85835409  0.39509299    -0.88460
H1621       H  0.27723209  0.87926318  0.36759132     0.35640
H1622       H  0.28482285  0.88117971  0.42482003     0.40730
H1623       H  0.15845437  0.84431515  0.42263796     0.40350
H1624       H  0.17443448  0.84288924  0.37040428     0.35240
C1625       C  0.11201983  0.62755019  0.81274112    -0.26490
C1626       C  0.12268428  0.61623241  0.77026755    -0.14560
C1627       C  0.15117020  0.62032170  0.76132186     0.36070
C1628       C  0.16689711  0.63976824  0.79077213    -0.25940
C1629       C  0.15684814  0.65223263  0.83367900    -0.15180
C1630       C  0.12862633  0.64416195  0.84503665     0.37150
N1631       N  0.11659701  0.65150418  0.88982197    -0.89430
H1632       H  0.09046374  0.62357420  0.82114196     0.18270
H1633       H  0.18743770  0.64433940  0.77872305     0.18260
N1634       N  0.16499112  0.60495737  0.72259763    -0.88460
H1635       H  0.09897622  0.66520515  0.88432658     0.35640
H1636       H  0.10998819  0.63040144  0.90533417     0.40730
H1637       H  0.15386197  0.58502901  0.71192173     0.40350
H1638       H  0.18324604  0.59514705  0.73527807     0.35240
C1639       C  0.13618175  0.71428424  0.87090848    -0.26490
C1640       C  0.15734957  0.69728972  0.89489905    -0.14560
C1641       C  0.15692917  0.70072466  0.94506385     0.36070
C1642       C  0.13701306  0.71912357  0.96729085    -0.25940
C1643       C  0.11544594  0.73357655  0.94374540    -0.15180
C1644       C  0.11530775  0.73195343  0.89456192     0.37150
N1645       N  0.09330743  0.74637471  0.86893359    -0.89430
H1646       H  0.13485252  0.71198212  0.83321552     0.18270
H1647       H  0.13802012  0.72080978  0.00506860     0.18260
N1648       N  0.17550286  0.68509449  0.97586679    -0.88460
H1649       H  0.09546740  0.74162547  0.83314928     0.35640
H1650       H  0.09522624  0.77092067  0.87285323     0.40730
H1651       H  0.16420022  0.67055631  0.99858224     0.40350
H1652       H  0.18590296  0.70216419  0.99574059     0.35240
C1653       C  0.21698209  0.66497226  0.92218491    -0.26490
C1654       C  0.19292459  0.65195447  0.90188246    -0.14560
C1655       C  0.18446908  0.62160329  0.91933264     0.36070
C1656       C  0.19906178  0.60654634  0.95587597    -0.25940
C1657       C  0.22228207  0.62030765  0.97639943    -0.15180
C1658       C  0.23108231  0.65030209  0.95880313     0.37150
N1659       N  0.25343903  0.66783346  0.97895821    -0.89430
H1660       H  0.22390454  0.68837204  0.91197544     0.18270
H1661       H  0.19232452  0.58357725  0.96802679     0.18260
N1662       N  0.16134812  0.60527819  0.90032085    -0.88460
H1663       H  0.27216039  0.65709446  0.97030382     0.35640
H1664       H  0.25081473  0.66883858  0.01529087     0.40730
H1665       H  0.14838080  0.59821097  0.92777540     0.40350
H1666       H  0.16848429  0.58522462  0.88261907     0.35240
C1667       C  0.19381965  0.72405050  0.82006745    -0.26490
C1668       C  0.19843897  0.69196161  0.83315381    -0.14560
C1669       C  0.22391911  0.67858874  0.81445522     0.36070
C1670       C  0.24173767  0.69667151  0.78530784    -0.25940
C1671       C  0.23563543  0.72763007  0.77144087    -0.15180
C1672       C  0.21095207  0.74101046  0.78866311     0.37150
N1673       N  0.20184590  0.77167294  0.77386298    -0.89430
H1674       H  0.17648299  0.73715629  0.83304049     0.18270
H1675       H  0.26023095  0.68559110  0.77140503     0.18260
N1676       N  0.23258645  0.64636044  0.82169169    -0.88460
H1677       H  0.18428176  0.76809970  0.75349204     0.35640
H1678       H  0.21627993  0.78313624  0.75259997     0.40730
H1679       H  0.21720481  0.63134970  0.83400811     0.40350
H1680       H  0.24903354  0.64642987  0.84512868     0.35240
C1681       C  0.09764644  0.85864724  0.67626502    -0.26490
C1682       C  0.08710952  0.85868269  0.72216406    -0.14560
C1683       C  0.06237975  0.84166401  0.73011601     0.36070
C1684       C  0.04981475  0.82505836  0.69249442    -0.25940
C1685       C  0.06197551  0.82187879  0.64666924    -0.15180
C1686       C  0.08590128  0.84094190  0.63949431     0.37150
N1687       N  0.09896661  0.84320168  0.59497746    -0.89430
H1688       H  0.11617278  0.87218254  0.66867934     0.18270
H1689       H  0.03022828  0.81410820  0.70057602     0.18260
N1690       N  0.04963379  0.83963269  0.77562609    -0.88460
H1691       H  0.11940304  0.83569286  0.59814834     0.35640
H1692       H  0.09911459  0.86703895  0.58502717     0.40730
H1693       H  0.06083225  0.85186189  0.80090374     0.40350
H1694       H  0.04980870  0.81580823  0.78556381     0.35240
C1695       C  0.06145152  0.99444133  0.98727196    -0.26490
C1696       C  0.09020086  0.99332508  0.98498352    -0.14560
C1697       C  0.10516085  0.50581081  0.02365089     0.36070
C1698       C  0.09166979  0.52071732  0.06102935    -0.25940
C1699       C  0.06315921  0.52538663  0.06127284    -0.15180
C1700       C  0.04785023  0.00994402  0.02488788     0.37150
N1701       N  0.01838228  0.00981223  0.02582543    -0.89430
H1702       H  0.04944090  0.98415014  0.95920526     0.18270
H1703       H  0.10412891  0.52856968  0.09002789     0.18260
N1704       N  0.13451813  0.50358577  0.02570375    -0.88460
H1705       H  0.01167925  0.98624599  0.02602813     0.35640
H1706       H  0.01152833  0.52039601  0.99501308     0.40730
H1707       H  0.13962920  0.49175946  0.05654940     0.40350
H1708       H  0.14260861  0.52654353  0.02773404     0.35240
C1709       C  0.26041680  0.87039322  0.03010022    -0.26490
C1710       C  0.26654942  0.86503464  0.98250199    -0.14560
C1711       C  0.28688246  0.84239926  0.97140783     0.36070
C1712       C  0.29890837  0.82417928  0.00763233    -0.25940
C1713       C  0.29046360  0.82679287  0.05550381    -0.15180
C1714       C  0.27255154  0.85250395  0.06617771     0.37150
N1715       N  0.26629772  0.86058432  0.11386602    -0.89430
H1716       H  0.24532595  0.88829336  0.03947345     0.18270
H1717       H  0.31509229  0.80803061  0.99750823     0.18260
N1718       N  0.29487269  0.83740729  0.92338980    -0.88460
H1719       H  0.24492874  0.86100660  0.11863735     0.35640
H1720       H  0.27348522  0.88360683  0.11987445     0.40730
H1721       H  0.27777547  0.82839524  0.90563664     0.40350
H1722       H  0.31027054  0.82015773  0.92088344     0.35240
C1723       C  0.28063991  0.98180542  0.69124680    -0.26490
C1724       C  0.26256722  0.99773371  0.72180864    -0.14560
C1725       C  0.25420964  0.52859850  0.70896488     0.36070
C1726       C  0.26392776  0.54283535  0.66746781    -0.25940
C1727       C  0.28492532  0.52890971  0.63937066    -0.15180
C1728       C  0.29173864  0.99668591  0.65057002     0.37150
N1729       N  0.30876343  0.97796660  0.62026312    -0.89430
H1730       H  0.28543035  0.95715950  0.69788529     0.18270
H1731       H  0.25776510  0.56707340  0.66097972     0.18260
N1732       N  0.23602460  0.54618189  0.73908448    -0.88460
H1733       H  0.29725393  0.95852729  0.60879154     0.35640
H1734       H  0.32537336  0.96949428  0.63965726     0.40730
H1735       H  0.21858545  0.55227020  0.71984455     0.40350
H1736       H  0.24602043  0.56712365  0.74896257     0.35240
C1737       C  0.31920843  0.57040523  0.69025953    -0.26490
C1738       C  0.32211094  0.57264380  0.64054680    -0.14560
C1739       C  0.34589284  0.59087863  0.62560014     0.36070
C1740       C  0.36347917  0.60554504  0.65897261    -0.25940
C1741       C  0.35848265  0.60398674  0.70759886    -0.15180
C1742       C  0.33501751  0.58728719  0.72263189     0.37150
N1743       N  0.32690361  0.58729620  0.77128464    -0.89430
H1744       H  0.30519158  0.55459662  0.70688214     0.18270
H1745       H  0.38129568  0.61855700  0.64633971     0.18260
N1746       N  0.35344001  0.59520404  0.57720074    -0.88460
H1747       H  0.30953006  0.57313518  0.77723129     0.35640
H1748       H  0.32094453  0.61042902  0.77987434     0.40730
H1749       H  0.33882132  0.58630676  0.55415289     0.40350
H1750       H  0.37198396  0.58326037  0.57095808     0.35240
C1751       C  0.02482426  0.61313739  0.01373376    -0.26490
C1752       C  0.49635030  0.61240763  0.01969814    -0.14560
C1753       C  0.48426967  0.58970050  0.04848518     0.36070
C1754       C  0.50127823  0.56855132  0.07195174    -0.25940
C1755       C  0.03073259  0.57048377  0.07080901    -0.15180
C1756       C  0.04179575  0.59126126  0.03599940     0.37150
N1757       N  0.06848967  0.58647670  0.01570167    -0.89430
H1758       H  0.03371276  0.62841824  0.98712662     0.18270
H1759       H  0.49064299  0.54862085  0.08695132     0.18260
N1760       N  0.45474236  0.58617511  0.05009794    -0.88460
H1761       H  0.07869596  0.60834883  0.01473912     0.35640
H1762       H  0.06597924  0.57895893  0.98105574     0.40730
H1763       H  0.44664854  0.60660618  0.06576813     0.40350
H1764       H  0.44895746  0.56725190  0.07156289     0.35240
C1765       C  0.33117151  0.73719827  0.01669082    -0.26490
C1766       C  0.35946557  0.73889910  0.02521909    -0.14560
C1767       C  0.36877357  0.75597021  0.06431940     0.36070
C1768       C  0.34981716  0.77475225  0.08972534    -0.25940
C1769       C  0.32207409  0.77856496  0.07485448    -0.15180
C1770       C  0.31246150  0.75608998  0.04152225     0.37150
N1771       N  0.28387000  0.75340979  0.03058897    -0.89430
H1772       H  0.32358058  0.72226764  0.98857845     0.18270
H1773       H  0.35734617  0.78697424  0.12031881     0.18260
N1774       N  0.39748494  0.75575373  0.07640253    -0.88460
H1775       H  0.27764353  0.73011336  0.03726069     0.35640
H1776       H  0.28142113  0.75764013  0.99481816     0.40730
H1777       H  0.40232507  0.73284439  0.08740752     0.40350
H1778       H  0.40111591  0.77076308  0.10492485     0.35240
C1779       C  0.04003470  0.75524208  0.66797578    -0.26490
C1780       C  0.02817794  0.77594085  0.63480685    -0.14560
C1781       C  0.49835476  0.77782981  0.63668364     0.36070
C1782       C  0.48281701  0.75657651  0.66384298    -0.25940
C1783       C  0.49521092  0.73581260  0.69474345    -0.15180
C1784       C  0.02435430  0.73483647  0.69646445     0.37150
N1785       N  0.03885605  0.71411325  0.72765896    -0.89430
H1786       H  0.06207951  0.75601682  0.67372491     0.18270
H1787       H  0.46055613  0.75909373  0.66482561     0.18260
N1788       N  0.48315934  0.80344114  0.61668832    -0.88460
H1789       H  0.05167668  0.69968099  0.70714237     0.35640
H1790       H  0.02539020  0.69859748  0.74471168     0.40730
H1791       H  0.47322017  0.81592161  0.64363819     0.40350
H1792       H  0.46808181  0.79398451  0.59464106     0.35240
C1793       C  0.31104823  0.83454570  0.17473987    -0.26490
C1794       C  0.31942864  0.82832612  0.12821516    -0.14560
C1795       C  0.34360749  0.84473267  0.11256851     0.36070
C1796       C  0.36092995  0.86072046  0.14488624    -0.25940
C1797       C  0.35393379  0.86309814  0.19264686    -0.15180
C1798       C  0.32742828  0.85184867  0.20636721     0.37150
N1799       N  0.31671974  0.85847148  0.25243030    -0.89430
H1800       H  0.29112764  0.82648387  0.18695811     0.18270
H1801       H  0.38021321  0.87073644  0.13251515     0.18260
N1802       N  0.35147729  0.84392328  0.06414924    -0.88460
H1803       H  0.29741695  0.84792377  0.25756544     0.35640
H1804       H  0.31360033  0.88294850  0.25461386     0.40730
H1805       H  0.35230007  0.86726713  0.05210109     0.40350
H1806       H  0.37134000  0.83445496  0.06149077     0.35240
C1807       C  0.51472545  0.97564901  0.16687813    -0.26490
C1808       C  0.49480652  0.99166511  0.19325119    -0.14560
C1809       C  0.49259471  0.52466196  0.19038749     0.36070
C1810       C  0.51086574  0.54126108  0.16151885    -0.25940
C1811       C  0.03021206  0.52563041  0.13173350    -0.15180
C1812       C  0.03296342  0.99216025  0.13740154     0.37150
N1813       N  0.05583116  0.97510526  0.11797198    -0.89430
H1814       H  0.51741186  0.95036612  0.17165900     0.18270
H1815       H  0.51010800  0.56692881  0.16198240     0.18260
N1816       N  0.47214269  0.54122389  0.21777200    -0.88460
H1817       H  0.04824226  0.95651078  0.09751178     0.35640
H1818       H  0.06707785  0.96547530  0.14553388     0.40730
H1819       H  0.45276613  0.53390314  0.20603207     0.40350
H1820       H  0.47331043  0.56563576  0.21189769     0.35240
C1821       C  0.49747598  0.82114416  0.50689104    -0.26490
C1822       C  0.49164453  0.85322753  0.51531972    -0.14560
C1823       C  0.50556917  0.86877089  0.55189320     0.36070
C1824       C  0.02398446  0.85172634  0.58056341    -0.25940
C1825       C  0.02951163  0.81913050  0.57317956    -0.15180
C1826       C  0.51601579  0.80399432  0.53462765     0.37150
N1827       N  0.52115481  0.77119376  0.52347161    -0.89430
H1828       H  0.48745947  0.80921875  0.47793396     0.18270
H1829       H  0.03373570  0.86431594  0.60896932     0.18260
N1830       N  0.50193739  0.90217128  0.55882233    -0.88460
H1831       H  0.51148388  0.76467950  0.49228597     0.35640
H1832       H  0.01224024  0.75719501  0.54951580     0.40730
H1833       H  0.50839754  0.91357973  0.52822236     0.40350
H1834       H  0.01551424  0.90983265  0.58460803     0.35240
C1835       C  0.33430919  0.00737757  0.49600703    -0.26490
C1836       C  0.36073322  0.99939949  0.51088848    -0.14560
C1837       C  0.36770105  0.50680240  0.55763415     0.36070
C1838       C  0.34850773  0.52245065  0.58708286    -0.25940
C1839       C  0.32179816  0.53205539  0.57186231    -0.15180
C1840       C  0.31498616  0.52264060  0.52505457     0.37150
N1841       N  0.28831039  0.52695970  0.50570514    -0.89430
H1842       H  0.32796981  0.00093882  0.46090079     0.18270
H1843       H  0.35474209  0.52678634  0.62282237     0.18260
N1844       N  0.39423116  0.49941780  0.57618084    -0.88460
H1845       H  0.29020403  0.54061368  0.47537184     0.35640
H1846       H  0.28028348  0.50478550  0.49648793     0.40730
H1847       H  0.40922074  0.00921058  0.55409269     0.40350
H1848       H  0.39654778  0.47480720  0.57638196     0.35240
C1849       C  0.43365725  0.97043145  0.92825238    -0.26490
C1850       C  0.41473033  0.95440970  0.89800056    -0.14560
C1851       C  0.38629476  0.95840306  0.90857633     0.36070
C1852       C  0.37838295  0.97392958  0.95043736    -0.25940
C1853       C  0.39723743  0.98909050  0.98065774    -0.15180
C1854       C  0.42543296  0.48769638  0.96863394     0.37150
N1855       N  0.44554634  0.50311521  0.99755446    -0.89430
H1856       H  0.45555775  0.96811252  0.92157290     0.18270
H1857       H  0.35681377  0.97409383  0.95949539     0.18260
N1858       N  0.36517014  0.94694491  0.87788019    -0.88460
H1859       H  0.46523476  0.50044484  0.98304106     0.35640
H1860       H  0.44572514  0.49144918  0.02975799     0.40730
H1861       H  0.36589243  0.96027419  0.84725224     0.40350
H1862       H  0.34553285  0.95045986  0.89229985     0.35240
C1863       C  0.47618451  0.95179946  0.83251797    -0.26490
C1864       C  0.44703563  0.95393661  0.83178726    -0.14560
C1865       C  0.43561971  0.97924690  0.80542965     0.36070
C1866       C  0.45239873  0.49761154  0.77588549    -0.25940
C1867       C  0.48071585  0.49204303  0.77241407    -0.15180
C1868       C  0.99288396  0.96929814  0.80150278     0.37150
N1869       N  0.02190364  0.96273090  0.79753417    -0.89430
H1870       H  0.48646890  0.93655085  0.85686389     0.18270
H1871       H  0.44304736  0.51560542  0.75420734     0.18260
N1872       N  0.40662751  0.48544096  0.80674808    -0.88460
H1873       H  0.02738516  0.94393680  0.81929016     0.35640
H1874       H  0.03254485  0.98265113  0.80969103     0.40730
H1875       H  0.39898235  0.98332663  0.77278167     0.40350
H1876       H  0.40373841  0.50884601  0.81786121     0.35240
C1877       C  0.39321257  0.89014492  0.74985742    -0.26490
C1878       C  0.37147723  0.87201082  0.76890583    -0.14560
C1879       C  0.36855880  0.87295818  0.81876891     0.36070
C1880       C  0.38740854  0.89102699  0.84603681    -0.25940
C1881       C  0.40765527  0.91155173  0.82647603    -0.15180
C1882       C  0.41112561  0.90887556  0.77680384     0.37150
N1883       N  0.43395710  0.92290662  0.75243660    -0.89430
H1884       H  0.39731739  0.88938264  0.71254635     0.18270
H1885       H  0.38529276  0.88997347  0.88374902     0.18260
N1886       N  0.34694159  0.85676717  0.84385852    -0.88460
H1887       H  0.44537255  0.90491130  0.73616895     0.35640
H1888       H  0.42624927  0.93764077  0.72626982     0.40730
H1889       H  0.33214955  0.84732272  0.82178932     0.40350
H1890       H  0.33633220  0.87374199  0.86375336     0.35240
C1891       C  0.43546915  0.89873116  0.93470361    -0.26490
C1892       C  0.44326108  0.90486852  0.88792183    -0.14560
C1893       C  0.46386842  0.88464362  0.86867280     0.36070
C1894       C  0.98148117  0.86790689  0.89894794    -0.25940
C1895       C  0.47709949  0.86868494  0.94770849    -0.15180
C1896       C  0.45214160  0.88189548  0.96464791     0.37150
N1897       N  0.44247605  0.87820344  0.01182932    -0.89430
H1898       H  0.41658819  0.90813180  0.94954577     0.18270
H1899       H  0.99887876  0.85505970  0.88436622     0.18260
N1900       N  0.46758140  0.88181776  0.81907319    -0.88460
H1901       H  0.45465552  0.89156896  0.03453694     0.35640
H1902       H  0.44292685  0.85418117  0.02049221     0.40730
H1903       H  0.46447896  0.85806697  0.80992448     0.40350
H1904       H  0.98801536  0.88751449  0.81075612     0.35240
C1905       C  0.92763690  0.43106556  0.86003642    -0.02660
O1906       O  0.98789575  0.48619002  0.42330705    -0.75460
O1907       O  0.96160458  0.46257859  0.48028324    -0.54370
C1908       C  0.98151330  0.48071947  0.46566423     0.78270
O1909       O  0.88375549  0.48970549  0.27176080    -0.60060
O1910       O  0.90907664  0.46275420  0.21650881    -0.53090
C1911       C  0.89186993  0.48382539  0.22955545     0.70280
O1912       O  0.87521421  0.48952725  0.43246913    -0.74620
O1913       O  0.89701571  0.46248692  0.49026483    -0.55190
C1914       C  0.87931620  0.48302808  0.47607564     0.76280
O1915       O  0.98468826  0.48294608  0.27192151    -0.59770
O1916       O  0.96188942  0.45373400  0.21693440    -0.52890
C1917       C  0.97950624  0.47475325  0.22952299     0.72880
Zr1918     Zr  0.97042654  0.46945355  0.35096166     2.54710
O1919       O  0.96910426  0.02712474  0.34941664    -0.80330
O1920       O  0.52045849  0.46520719  0.34564239    -0.93750
Zr1921     Zr  0.88975526  0.47408703  0.35276400     2.64680
O1922       O  0.88584164  0.03133076  0.35926699    -0.98700
O1923       O  0.83978481  0.47051771  0.34638807    -0.80760
O1924       O  0.93002751  0.47337030  0.39851828    -0.84120
O1925       O  0.93053303  0.47151115  0.30661806    -2.18830
O1926       O  0.98911939  0.36610459  0.28906728    -0.67510
O1927       O  0.96621852  0.39111760  0.23021249    -0.52080
C1928       C  0.98588441  0.37419634  0.24670435     0.71260
O1929       O  0.86815991  0.36447941  0.42135200    -0.60420
O1930       O  0.89183687  0.39094435  0.47874404    -0.52400
C1931       C  0.87309330  0.37142699  0.46374752     0.73060
O1932       O  0.86804657  0.37061772  0.27147098    -0.71820
O1933       O  0.89529184  0.39281495  0.21574418    -0.50490
C1934       C  0.87380830  0.37655371  0.22844732     0.74440
O1935       O  0.97947060  0.36228104  0.43755234    -0.67140
O1936       O  0.95730428  0.39219167  0.49257396    -0.54340
C1937       C  0.97477715  0.37048540  0.48009572     0.72830
Zr1938     Zr  0.96580841  0.37703973  0.35969835     2.77540
O1939       O  0.95807347  0.32081144  0.35979021    -0.97890
O1940       O  0.51555335  0.37215250  0.36802397    -0.78710
Zr1941     Zr  0.88573987  0.38163978  0.34918550     2.70070
O1942       O  0.88440138  0.32411415  0.34307339    -0.79960
O1943       O  0.83605170  0.38873206  0.35536637    -0.99050
Zr1944     Zr  0.92703212  0.42677658  0.44574326     2.21500
Zr1945     Zr  0.92964050  0.42297922  0.26256049     2.11130
O1946       O  0.92750259  0.37595197  0.30769604    -2.47730
O1947       O  0.92410814  0.37911525  0.40113756    -0.79750
O1948       O  0.96933286  0.42151888  0.31015252    -0.71950
O1949       O  0.88700979  0.42775806  0.39732335    -2.32910
O1950       O  0.96846089  0.42465347  0.40108007    -2.29120
O1951       O  0.88739808  0.42801448  0.30469060    -0.73710
H1952       H  0.93253454  0.49009486  0.28730357     0.78290
H1953       H  0.87041986  0.42861428  0.41617720     0.79370
H1954       H  0.92743629  0.35726377  0.28803514     0.81600
H1955       H  0.98457896  0.42399379  0.42068051     0.79210
H1956       H  0.83332600  0.46328172  0.37751479     0.42240
H1957       H  0.83132047  0.40345804  0.32979533     0.41210
H1958       H  0.89844531  0.31676679  0.36551236     0.40890
H1959       H  0.95508072  0.31616152  0.32626108     0.38820
H1960       H  0.52294152  0.39310747  0.35870325     0.41960
H1961       H  0.52602215  0.45373573  0.37420459     0.36740
H1962       H  0.95606550  0.03309833  0.37476845     0.42860
H1963       H  0.90464076  0.03924597  0.35240399     0.39270
H1964       H  0.97654781  0.31224292  0.36690200     0.44190
H1965       H  0.52728073  0.48711336  0.35038891     0.42910
H1966       H  0.87456071  0.03773906  0.33219678     0.43050
H1967       H  0.82817428  0.36806241  0.34579304     0.43410
O1968       O  0.98491558  0.23984814  0.92393714    -0.75460
O1969       O  0.96017197  0.21749529  0.98363499    -0.54370
C1970       C  0.97900120  0.23541336  0.96663344     0.78270
O1971       O  0.86744974  0.23292707  0.79399202    -0.60060
O1972       O  0.89166989  0.20744988  0.73612195    -0.53090
C1973       C  0.87260740  0.22611223  0.75140034     0.70280
O1974       O  0.87134421  0.23209254  0.94660202    -0.74620
O1975       O  0.89899366  0.20912517  0.00057652    -0.55190
C1976       C  0.87813716  0.22598225  0.98895790     0.76280
O1977       O  0.98452606  0.23069496  0.77413434    -0.59770
O1978       O  0.95673183  0.20498577  0.72251732    -0.52890
C1979       C  0.97774608  0.22249542  0.73258529     0.72880
Zr1980     Zr  0.96732874  0.22309169  0.85262205     2.54710
O1981       O  0.96452094  0.28051091  0.84658577    -0.80330
O1982       O  0.51754703  0.22315616  0.84650305    -0.93750
Zr1983     Zr  0.88648137  0.22054795  0.86730024     2.64680
O1984       O  0.88863727  0.27815505  0.87073023    -0.98700
O1985       O  0.83626385  0.22151276  0.86920022    -0.80760
O1986       O  0.92894026  0.22523891  0.90532546    -0.84120
O1987       O  0.92480872  0.22257970  0.81414156    -2.18830
O1988       O  0.98678194  0.11995180  0.79058159    -0.67510
O1989       O  0.95880729  0.14054758  0.73435345    -0.52080
C1990       C  0.97974745  0.12488255  0.74870841     0.71260
O1991       O  0.89708723  0.10335915  0.94299757    -0.60420
O1992       O  0.90700971  0.14095833  0.99804179    -0.52400
C1993       C  0.89710152  0.11436933  0.98506839     0.73060
O1994       O  0.87419998  0.11277985  0.78634513    -0.71820
O1995       O  0.89503499  0.14006314  0.72763462    -0.50490
C1996       C  0.87726679  0.11982285  0.74253214     0.74440
O1997       O  0.98382064  0.11810641  0.94250345    -0.67140
O1998       O  0.96279870  0.14942896  0.99722242    -0.54340
C1999       C  0.97986143  0.12789591  0.98450785     0.72830
Zr2000     Zr  0.96926775  0.13060977  0.86443436     2.77540
O2001       O  0.97055869  0.07288228  0.86286499    -0.97890
O2002       O  0.51934665  0.13345743  0.86946250    -0.78710
Zr2003     Zr  0.88889425  0.12704606  0.86652553     2.70070
O2004       O  0.87710839  0.07099897  0.86314903    -0.79960
O2005       O  0.84016897  0.13302025  0.88467773    -0.99050
Zr2006     Zr  0.93039963  0.17874519  0.95144592     2.21500
Zr2007     Zr  0.92553614  0.17378510  0.77237781     2.11130
O2008       O  0.92845478  0.12658795  0.81854416    -2.47730
O2009       O  0.92988973  0.12971466  0.91050835    -0.79750
O2010       O  0.96751567  0.17472624  0.81359369    -0.71950
O2011       O  0.88742599  0.17408628  0.91238162    -2.32910
O2012       O  0.97059221  0.17905555  0.90374603    -2.29120
O2013       O  0.88590229  0.17338463  0.82166646    -0.73710
H2014       H  0.92368946  0.24054155  0.79339417     0.78290
H2015       H  0.87216958  0.17285584  0.93421319     0.79370
H2016       H  0.92884024  0.10775886  0.79918322     0.81600
H2017       H  0.98728292  0.17993186  0.92192636     0.79210
H2018       H  0.83090702  0.20706193  0.89492778     0.42240
H2019       H  0.83433827  0.15151612  0.86603884     0.41210
H2020       H  0.89506075  0.05997339  0.86519467     0.40890
H2021       H  0.96107882  0.06672509  0.83362424     0.38820
H2022       H  0.52481676  0.14991919  0.84659611     0.41960
H2023       H  0.52398053  0.20967037  0.87249019     0.36740
H2024       H  0.95525682  0.28740015  0.87590297     0.42860
H2025       H  0.89782048  0.28446543  0.84113738     0.39270
H2026       H  0.99017563  0.06763438  0.85697009     0.44190
H2027       H  0.52327372  0.24491043  0.85527451     0.42910
H2028       H  0.86927651  0.28507622  0.86709541     0.43050
H2029       H  0.83141159  0.11472094  0.86884565     0.43410
O2030       O  0.71006474  0.49254005  0.95654594    -0.75460
O2031       O  0.74477910  0.46200562  0.92560043    -0.54370
C2032       C  0.73410852  0.48138227  0.95706578     0.78270
O2033       O  0.63157904  0.36878158  0.94239013    -0.60060
O2034       O  0.59538770  0.39002711  0.90230928    -0.53090
C2035       C  0.60600853  0.37314601  0.93477242     0.70280
O2036       O  0.72206806  0.37299377  0.95392253    -0.74620
O2037       O  0.75690897  0.39628509  0.91202593    -0.55190
C2038       C  0.74769227  0.37909732  0.94657355     0.76280
O2039       O  0.62836886  0.49474134  0.93556579    -0.59770
O2040       O  0.59664524  0.45732777  0.91727564    -0.52890
C2041       C  0.60545969  0.48085529  0.94285599     0.72880
Zr2042     Zr  0.67252080  0.47405299  0.91612396     2.54710
O2043       O  0.67193781  0.46126484  0.99918523    -0.80330
O2044       O  0.67294278  0.03136689  0.91357202    -0.93750
Zr2045     Zr  0.67713001  0.38237088  0.91982607     2.64680
O2046       O  0.67698089  0.38423746  0.00500407    -0.98700
O2047       O  0.67943487  0.32474749  0.91693426    -0.80760
O2048       O  0.70185851  0.42981397  0.91851610    -0.84120
O2049       O  0.64737238  0.42702273  0.91965307    -2.18830
O2050       O  0.63129959  0.48650990  0.76029990    -0.67510
O2051       O  0.59552777  0.46368112  0.80065446    -0.52080
C2052       C  0.60582825  0.48166681  0.76863640     0.71260
O2053       O  0.72010421  0.36872638  0.75949675    -0.60420
O2054       O  0.75544662  0.39233002  0.79967425    -0.52400
C2055       C  0.74550907  0.37409036  0.76725926     0.73060
O2056       O  0.63092606  0.36710751  0.75362507    -0.71820
O2057       O  0.59568035  0.39238983  0.79153345    -0.50490
C2058       C  0.60521947  0.37345307  0.75914667     0.74440
O2059       O  0.71971309  0.48365115  0.74953712    -0.67140
O2060       O  0.75534149  0.46431355  0.79270741    -0.54340
C2061       C  0.74537687  0.48030585  0.75747526     0.72830
Zr2062     Zr  0.67611564  0.47247103  0.78417532     2.77540
O2063       O  0.67629596  0.47095665  0.69893898    -0.97890
O2064       O  0.67811595  0.03001415  0.78995802    -0.78710
Zr2065     Zr  0.67520400  0.38071146  0.78667866     2.70070
O2066       O  0.67744093  0.37731606  0.70165950    -0.79960
O2067       O  0.67211571  0.32410327  0.79953935    -0.99050
Zr2068     Zr  0.73202393  0.42963863  0.85369222     2.21500
Zr2069     Zr  0.61909659  0.42648714  0.85143852     2.11130
O2070       O  0.64827876  0.42660168  0.78359661    -2.47730
O2071       O  0.70305995  0.42666647  0.78644849    -0.79750
O2072       O  0.64565485  0.47410698  0.84887221    -0.71950
O2073       O  0.70492900  0.38155955  0.85244042    -2.32910
O2074       O  0.70349603  0.47590605  0.85167013    -2.29120
O2075       O  0.64760308  0.38000613  0.85405492    -0.73710
H2076       H  0.63660941  0.42719835  0.94820153     0.78290
H2077       H  0.71659214  0.36302835  0.85281626     0.79370
H2078       H  0.63761432  0.42646983  0.75520819     0.81600
H2079       H  0.71438600  0.49510220  0.85193151     0.79210
H2080       H  0.69793283  0.31991934  0.90390866     0.42240
H2081       H  0.66020496  0.32164597  0.82755413     0.41210
H2082       H  0.68369180  0.39860002  0.69162037     0.40890
H2083       H  0.65912257  0.45978743  0.69011848     0.38820
H2084       H  0.66177293  0.03594522  0.80900862     0.41960
H2085       H  0.69216522  0.03733989  0.90565524     0.36740
H2086       H  0.68736551  0.44636271  0.00414512     0.42860
H2087       H  0.65805850  0.39052467  0.01429093     0.39270
H2088       H  0.67330693  0.49325306  0.68964698     0.44190
H2089       H  0.67036912  0.03780550  0.94664868     0.42910
H2090       H  0.67860476  0.36178978  0.01444206     0.43050
H2091       H  0.66054236  0.31641446  0.77343835     0.43410
C2092       C  0.67646694  0.17316815  0.86600328    -0.02660
C2093       C  0.67475899  0.42801609  0.35362638    -0.02660
C2094       C  0.93163285  0.17713839  0.34734052    -0.02660
O2095       O  0.99301765  0.11837039  0.67327073    -0.75460
O2096       O  0.51606281  0.09240590  0.73113359    -0.54370
C2097       C  0.49746326  0.11109714  0.71547697     0.78270
O2098       O  0.99193561  0.99180046  0.54191324    -0.60060
O2099       O  0.51819181  0.01523564  0.48459304    -0.53090
C2100       C  0.99848767  0.99688105  0.49948475     0.70280
O2101       O  0.98945605  0.00202629  0.69282371    -0.74620
O2102       O  0.51723440  0.02539333  0.74687285    -0.55190
C2103       C  0.49677141  0.00777655  0.73516578     0.76280
O2104       O  0.99700117  0.11542100  0.52474036    -0.59770
O2105       O  0.52049720  0.08581306  0.47094456    -0.52890
C2106       C  0.50157092  0.10615717  0.48264366     0.72880
Zr2107     Zr  0.51332869  0.10379791  0.60236132     2.54710
O2108       O  0.96319339  0.10531721  0.59908312    -0.80330
O2109       O  0.51803499  0.16123964  0.59983183    -0.93750
Zr2110     Zr  0.50714524  0.01182659  0.61409248     2.64680
O2111       O  0.95741743  0.01932040  0.61323569    -0.98700
O2112       O  0.50305599  0.45537198  0.62745324    -0.80760
O2113       O  0.50914739  0.05993553  0.65388463    -0.84120
O2114       O  0.51038132  0.05562730  0.56236053    -2.18830
O2115       O  0.61054677  0.11381587  0.53861914    -0.67510
O2116       O  0.58646110  0.08743986  0.48170514    -0.52080
C2117       C  0.60552449  0.10665690  0.49610461     0.71260
O2118       O  0.59619777  0.99066469  0.69210013    -0.60420
O2119       O  0.57177645  0.01795541  0.74792161    -0.52400
C2120       C  0.58905623  0.99688326  0.73463221     0.73060
O2121       O  0.60772410  0.99207176  0.53395437    -0.71820
O2122       O  0.58610675  0.01948955  0.47597449    -0.50490
C2123       C  0.60465905  0.99997990  0.49072197     0.74440
O2124       O  0.61045548  0.10860046  0.69116045    -0.67140
O2125       O  0.58249008  0.08675766  0.74648237    -0.54340
C2126       C  0.60392423  0.10283598  0.73395391     0.72830
Zr2127     Zr  0.59332803  0.09792105  0.61303494     2.77540
O2128       O  0.64358470  0.09600067  0.61251444    -0.97890
O2129       O  0.59104600  0.15479214  0.62495556    -0.78710
Zr2130     Zr  0.58802698  0.00461087  0.61128770     2.70070
O2131       O  0.63788233  0.00115107  0.61798571    -0.79960
O2132       O  0.58325228  0.44721941  0.60737464    -0.99050
Zr2133     Zr  0.54928899  0.05631997  0.70024989     2.21500
Zr2134     Zr  0.55199715  0.05247050  0.51793918     2.11130
O2135       O  0.59159653  0.05116119  0.56699477    -2.47730
O2136       O  0.59124434  0.05131550  0.65762898    -0.79750
O2137       O  0.55512796  0.10103967  0.56076746    -0.71950
O2138       O  0.54740677  0.00794367  0.65761534    -2.32910
O2139       O  0.55168655  0.10321955  0.65433920    -2.29120
O2140       O  0.54758438  0.00616081  0.56588104    -0.73710
H2141       H  0.99436464  0.05577852  0.54251410     0.78290
H2142       H  0.54560250  0.48990876  0.67805889     0.79370
H2143       H  0.60835943  0.05053555  0.54861824     0.81600
H2144       H  0.55196072  0.12192979  0.67395256     0.79210
H2145       H  0.51358740  0.45091363  0.65621135     0.42240
H2146       H  0.57271478  0.44319057  0.57839122     0.41210
H2147       H  0.64376789  0.02297339  0.62605656     0.40890
H2148       H  0.64869146  0.08247400  0.58540922     0.38820
H2149       H  0.57222622  0.16067588  0.61517751     0.41960
H2150       H  0.52118150  0.16775563  0.63270421     0.36740
H2151       H  0.95701155  0.08598353  0.61565473     0.42860
H2152       H  0.95349451  0.02861704  0.58225495     0.39270
H2153       H  0.64962722  0.11761113  0.60370394     0.44190
H2154       H  0.99925295  0.16897775  0.59286562     0.42910
H2155       H  0.94980584  0.99755436  0.61163826     0.43050
H2156       H  0.60206467  0.43942715  0.60018485     0.43410
O2157       O  0.99689146  0.36606217  0.02257584    -0.75460
O2158       O  0.51383937  0.33323765  0.96626619    -0.54370
C2159       C  0.49744568  0.35516655  0.98051935     0.78270
O2160       O  0.61394304  0.36358716  0.17146595    -0.60060
O2161       O  0.58761339  0.34188988  0.22979961    -0.53090
C2162       C  0.60796355  0.35872119  0.21498762     0.70280
O2163       O  0.59863631  0.36373199  0.01185309    -0.74620
O2164       O  0.56967210  0.34096857  0.95870734    -0.55190
C2165       C  0.58942847  0.35918996  0.97023303     0.76280
O2166       O  0.00699963  0.37689198  0.17538370    -0.59770
O2167       O  0.52102884  0.33927822  0.22712056    -0.52890
C2168       C  0.50611626  0.36287733  0.21463231     0.72880
Zr2169     Zr  0.51353632  0.35446129  0.10075236     2.54710
O2170       O  0.50449829  0.41094103  0.09356604    -0.80090
O2171       O  0.96479884  0.34516937  0.11744604    -0.93750
Zr2172     Zr  0.59436927  0.35117026  0.09411424     2.64680
O2173       O  0.59746115  0.40871176  0.09387229    -0.98700
O2174       O  0.64415951  0.34807874  0.08475633    -0.80760
O2175       O  0.55248548  0.35319461  0.05201216    -0.84120
O2176       O  0.55559863  0.35456028  0.14358088    -2.18830
O2177       O  0.99832200  0.25093839  0.18939936    -0.67510
O2178       O  0.52752514  0.27372785  0.24157880    -0.52080
C2179       C  0.50712266  0.25540029  0.23095842     0.71260
O2180       O  0.59074270  0.23559650  0.01452264    -0.60420
O2181       O  0.58092288  0.27362531  0.96204622    -0.52400
C2182       C  0.59393898  0.24848869  0.97426291     0.73060
O2183       O  0.61135152  0.24490044  0.16465685    -0.71820
O2184       O  0.59030415  0.27282909  0.22365240    -0.50490
C2185       C  0.60805534  0.25279607  0.20738013     0.74440
O2186       O  0.98830089  0.25001689  0.04060923    -0.67140
O2187       O  0.51688405  0.26590662  0.98122186    -0.54340
C2188       C  0.49576870  0.25158815  0.99813313     0.72830
Zr2189     Zr  0.51065612  0.26210433  0.10995241     2.77540
O2190       O  0.51336433  0.20452502  0.10863806    -0.97890
O2191       O  0.96083592  0.26016248  0.12088053    -0.78710
Zr2192     Zr  0.59062017  0.25797483  0.09269854     2.70070
O2193       O  0.59279638  0.20067958  0.10120078    -0.79960
O2194       O  0.63986272  0.26095723  0.07598087    -0.99050
Zr2195     Zr  0.54826402  0.30446231  0.00979445     2.21500
Zr2196     Zr  0.55592175  0.30727206  0.18976849     2.11130
O2197       O  0.55333594  0.25897554  0.14715496    -2.47730
O2198       O  0.54768683  0.25760272  0.05551828    -0.79750
O2199       O  0.51309131  0.30984137  0.15084045    -0.71950
O2200       O  0.59190612  0.30439549  0.04783176    -2.32910
O2201       O  0.50917769  0.30685698  0.06019868    -2.29120
O2202       O  0.59457424  0.30455293  0.13861082    -0.73710
H2203       H  0.55726717  0.37327396  0.16295915     0.78290
H2204       H  0.60707610  0.30364700  0.02576957     0.79370
H2205       H  0.55387891  0.24076148  0.16750300     0.81600
H2206       H  0.99210662  0.30730889  0.04311366     0.79210
H2207       H  0.64717895  0.33015655  0.06286976     0.42240
H2208       H  0.64707142  0.27619286  0.09935263     0.41210
H2209       H  0.57399636  0.19319784  0.09356243     0.40890
H2210       H  0.51961967  0.19913802  0.07651079     0.38820
H2211       H  0.95633653  0.27928433  0.13962044     0.41960
H2212       H  0.95798747  0.33170460  0.09156703     0.36740
H2213       H  0.51606747  0.41785180  0.06680097     0.42860
H2214       H  0.58820117  0.41524281  0.12332935     0.39270
H2215       H  0.99392782  0.19739148  0.10989084     0.44190
H2216       H  0.95582084  0.36595736  0.11284583     0.42910
H2217       H  0.61721896  0.41330459  0.09919367     0.43050
H2218       H  0.64719889  0.24020652  0.08603286     0.43410
O2219       O  0.86031836  0.50530537  0.02918023    -0.75460
O2220       O  0.89897324  0.02320288  0.05225273    -0.54370
C2221       C  0.88572008  0.00646412  0.02276002     0.78270
O2222       O  0.76527778  0.10760450  0.00626035    -0.60060
O2223       O  0.72921591  0.08171370  0.04047085    -0.53090
C2224       C  0.73956196  0.10199606  0.01062707     0.70280
O2225       O  0.85426229  0.10053683  0.00481004    -0.74620
O2226       O  0.88872752  0.08613040  0.05443157    -0.55190
C2227       C  0.87937782  0.09878890  0.01710091     0.76280
O2228       O  0.77491739  0.48352367  0.99517929    -0.59770
O2229       O  0.73875747  0.01038594  0.02976238    -0.52890
C2230       C  0.75002790  0.99222779  0.99714107     0.72880
Zr2231     Zr  0.81234548  0.00132439  0.03669422     2.54710
O2232       O  0.81565042  0.00532252  0.95178663    -0.80330
O2233       O  0.81984511  0.44444688  0.03614407    -0.93750
Zr2234     Zr  0.80939516  0.09329679  0.03614298     2.64680
O2235       O  0.81002810  0.09266604  0.95085634    -0.98700
O2236       O  0.81143227  0.15085941  0.04223901    -0.80760
O2237       O  0.83817468  0.04845631  0.03736007    -0.84120
O2238       O  0.78352686  0.04644884  0.03475203    -2.18830
O2239       O  0.76357483  0.48906013  0.20346801    -0.67510
O2240       O  0.72838765  0.01243879  0.16424943    -0.52080
C2241       C  0.73800166  0.99567945  0.19944933     0.71260
O2242       O  0.84970204  0.11067506  0.20361638    -0.60420
O2243       O  0.88579364  0.08559944  0.16731510    -0.52400
C2244       C  0.87544484  0.10462767  0.19854212     0.73060
O2245       O  0.76068725  0.10812524  0.19375743    -0.71820
O2246       O  0.72654758  0.08242662  0.15327210    -0.50490
C2247       C  0.73541521  0.10161185  0.18572601     0.74440
O2248       O  0.85068395  0.49268489  0.19991846    -0.67140
O2249       O  0.88737007  0.01589932  0.16278693    -0.54340
C2250       C  0.87615069  0.99866238  0.19458207     0.72830
Zr2251     Zr  0.80704245  0.00361497  0.16964440     2.77540
O2252       O  0.81158240  0.01261128  0.25346428    -0.97890
O2253       O  0.80730992  0.44582316  0.16977839    -0.78710
Zr2254     Zr  0.80645459  0.09555772  0.16877507     2.70070
O2255       O  0.80287743  0.09690462  0.25381912    -0.79960
O2256       O  0.80639670  0.15262114  0.15697364    -0.99050
Zr2257     Zr  0.86552421  0.05035388  0.10702557     2.21500
Zr2258     Zr  0.75170014  0.04555720  0.09903304     2.11130
O2259       O  0.77950049  0.04887033  0.16760271    -2.47730
O2260       O  0.83427777  0.05007403  0.17192360    -0.79750
O2261       O  0.78067745  0.99946742  0.10076847    -0.71950
O2262       O  0.83678472  0.09683476  0.10404754    -2.32910
O2263       O  0.83833758  0.00179726  0.10597801    -2.29120
O2264       O  0.77902511  0.09348682  0.10075288    -0.73710
H2265       H  0.77408326  0.04694576  0.00518996     0.78290
H2266       H  0.84763648  0.11606014  0.10418008     0.79370
H2267       H  0.76812537  0.04908223  0.19542996     0.81600
H2268       H  0.84979005  0.48310335  0.10777624     0.79210
H2269       H  0.83127872  0.15619287  0.03986993     0.42240
H2270       H  0.78816679  0.15727013  0.14325699     0.41210
H2271       H  0.81502041  0.07959706  0.26453937     0.40890
H2272       H  0.79419221  0.02278436  0.26376084     0.38820
H2273       H  0.80102551  0.43967838  0.13811398     0.41960
H2274       H  0.83977355  0.44186643  0.04230941     0.36740
H2275       H  0.82784245  0.02379004  0.94617617     0.42860
H2276       H  0.79731419  0.07540387  0.94160547     0.39270
H2277       H  0.81157401  0.49137275  0.26759060     0.44190
H2278       H  0.81772744  0.43807947  0.00296192     0.42910
H2279       H  0.80061006  0.11235800  0.94128969     0.43050
H2280       H  0.80538529  0.16154410  0.18903203     0.43410
C2281       C  0.80246380  0.30496161  0.09546920    -0.02660
C2282       C  0.54809462  0.29968642  0.60710005    -0.02660
O2283       O  0.62260700  0.23836337  0.43328092    -0.75460
O2284       O  0.64606372  0.20984362  0.48745904    -0.54370
C2285       C  0.62762371  0.23074578  0.47592212     0.78270
O2286       O  0.61997712  0.11821947  0.26734327    -0.60060
O2287       O  0.64186068  0.14505103  0.20942979    -0.53090
C2288       C  0.62386028  0.12458002  0.22389671     0.70280
O2289       O  0.61792887  0.11508285  0.41906816    -0.74620
O2290       O  0.64269083  0.14042611  0.47606671    -0.55190
C2291       C  0.62325422  0.12174617  0.46161114     0.76280
O2292       O  0.62132748  0.24334029  0.28286765    -0.59770
O2293       O  0.64272057  0.21599208  0.22344770    -0.52890
C2294       C  0.62544907  0.23657276  0.23991679     0.72880
Zr2295     Zr  0.63789510  0.22378068  0.35459411     2.54710
O2296       O  0.58779316  0.21978630  0.35706289    -0.80330
O2297       O  0.64064233  0.28135695  0.35874737    -0.93750
Zr2298     Zr  0.63550986  0.13138746  0.34533248     2.64680
O2299       O  0.58529537  0.13412060  0.34695706    -0.98700
O2300       O  0.63612285  0.07410313  0.33679968    -0.80760
O2301       O  0.63660502  0.17610988  0.39606711    -0.84120
O2302       O  0.63521084  0.17904475  0.30356307    -2.18830
O2303       O  0.73394091  0.23573586  0.26542256    -0.67510
O2304       O  0.70776358  0.21184475  0.20945918    -0.52080
C2305       C  0.72779327  0.23030038  0.22232128     0.71260
O2306       O  0.73308681  0.11299470  0.42619901    -0.60420
O2307       O  0.70926011  0.13984403  0.48332959    -0.52400
C2308       C  0.72798979  0.11985833  0.46996159     0.73060
O2309       O  0.72375335  0.11105305  0.26360792    -0.71820
O2310       O  0.70021624  0.13836919  0.20744956    -0.50490
C2311       C  0.71729651  0.11690203  0.22057731     0.74440
O2312       O  0.73731438  0.23462303  0.41810691    -0.67140
O2313       O  0.71279199  0.20944118  0.47590264    -0.54340
C2314       C  0.73213122  0.22816837  0.46093602     0.72830
Zr2315     Zr  0.71842387  0.22054413  0.34390023     2.77540
O2316       O  0.76856513  0.21713284  0.34345441    -0.97890
O2317       O  0.71610456  0.27818059  0.34453783    -0.78710
Zr2318     Zr  0.71620033  0.12731649  0.34573514     2.70070
O2319       O  0.76618565  0.12947512  0.33787328    -0.79960
O2320       O  0.71508944  0.06966344  0.34901943    -0.99050
Zr2321     Zr  0.67774140  0.17497015  0.44047710     2.21500
Zr2322     Zr  0.67519531  0.17748651  0.25414129     2.11130
O2323       O  0.71702653  0.17387768  0.29826203    -2.47730
O2324       O  0.71766645  0.17415394  0.39087300    -0.79750
O2325       O  0.67672337  0.22386101  0.30249402    -0.71950
O2326       O  0.67574918  0.12799646  0.39255847    -2.32910
O2327       O  0.67959827  0.22268127  0.39587035    -2.29120
O2328       O  0.67567607  0.12975547  0.29925502    -0.73710
H2329       H  0.61850830  0.17999531  0.28544871     0.78290
H2330       H  0.67507022  0.10916302  0.41165638     0.79370
H2331       H  0.73283272  0.17312726  0.27751925     0.81600
H2332       H  0.68073488  0.24103873  0.41609138     0.79210
H2333       H  0.65265557  0.06958706  0.31738793     0.42240
H2334       H  0.70553215  0.06294871  0.32011859     0.41210
H2335       H  0.77206514  0.14505746  0.36183367     0.40890
H2336       H  0.77312203  0.20191621  0.31810060     0.38820
H2337       H  0.70018738  0.28333720  0.32447193     0.41960
H2338       H  0.65161731  0.28590259  0.38707316     0.36740
H2339       H  0.58389832  0.20175927  0.37819087     0.42860
H2340       H  0.58027114  0.14779556  0.32028821     0.39270
H2341       H  0.77497176  0.23793069  0.33165804     0.44190
H2342       H  0.62172043  0.28825317  0.36706857     0.42910
H2343       H  0.57909374  0.11264066  0.33764436     0.43050
H2344       H  0.73449630  0.06316851  0.34396744     0.43410
O2345       O  0.85992284  0.23448664  0.67529722    -0.75460
O2346       O  0.83761401  0.26163674  0.73383442    -0.54370
C2347       C  0.85549108  0.24164806  0.71802715     0.78270
O2348       O  0.86158314  0.36113662  0.53976067    -0.60060
O2349       O  0.83654291  0.33654614  0.48226662    -0.53090
C2350       C  0.85577896  0.35538640  0.49731252     0.70280
O2351       O  0.85816124  0.36022257  0.69047002    -0.74620
O2352       O  0.83716515  0.33111808  0.74668063    -0.55190
C2353       C  0.85417484  0.35313666  0.73383701     0.76280
O2354       O  0.85917379  0.23793042  0.52423027    -0.59770
O2355       O  0.83464730  0.26471090  0.46926951    -0.52890
C2356       C  0.85412851  0.24520451  0.48143829     0.72880
Zr2357     Zr  0.84205515  0.25095207  0.60257355     2.54710
O2358       O  0.89227231  0.25140272  0.60003110    -0.80330
O2359       O  0.83766088  0.19357688  0.59889338    -0.93750
Zr2360     Zr  0.84460049  0.34330863  0.61206418     2.64680
O2361       O  0.89437159  0.33599230  0.61605096    -0.98700
O2362       O  0.84592553  0.40096109  0.61245143    -0.80760
O2363       O  0.84477185  0.29569517  0.65367240    -0.84120
O2364       O  0.84333220  0.29857324  0.56107637    -2.18830
O2365       O  0.74425666  0.23775369  0.53805124    -0.67510
O2366       O  0.76850415  0.26335842  0.48023905    -0.52080
C2367       C  0.74958439  0.24404536  0.49519686     0.71260
O2368       O  0.75547616  0.36286047  0.69017743    -0.60420
O2369       O  0.78005129  0.33731212  0.74693154    -0.52400
C2370       C  0.76261035  0.35799869  0.73305798     0.73060
O2371       O  0.74602944  0.36164735  0.52867465    -0.71820
O2372       O  0.77044654  0.33541577  0.47183628    -0.50490
C2373       C  0.75135778  0.35535311  0.48480710     0.74440
O2374       O  0.74659952  0.23731204  0.69134119    -0.67140
O2375       O  0.77194218  0.26364930  0.74622611    -0.54340
C2376       C  0.75283411  0.24371030  0.73415872     0.72830
Zr2377     Zr  0.76146922  0.25388968  0.61270152     2.77540
O2378       O  0.71142730  0.25817980  0.61734526    -0.97890
O2379       O  0.76329187  0.19629696  0.61319251    -0.78710
Zr2380     Zr  0.76358650  0.34706320  0.60871340     2.70070
O2381       O  0.71354344  0.34557143  0.61567674    -0.79960
O2382       O  0.76564226  0.40460772  0.60653572    -0.99050
Zr2383     Zr  0.80444019  0.29794867  0.70145830     2.21500
Zr2384     Zr  0.80230887  0.29964608  0.51541657     2.11130
O2385       O  0.76202355  0.29997616  0.56456392    -2.47730
O2386       O  0.76266257  0.30099014  0.65734027    -0.79750
O2387       O  0.80043289  0.25207458  0.56074652    -0.71950
O2388       O  0.80402413  0.34538674  0.65583572    -2.32910
O2389       O  0.80307656  0.25104469  0.65422726    -2.29120
O2390       O  0.80456933  0.34623903  0.56361558    -0.73710
H2391       H  0.85962812  0.29849730  0.54147268     0.78290
H2392       H  0.80529369  0.36411408  0.67522575     0.79370
H2393       H  0.74553562  0.30033433  0.54584628     0.81600
H2394       H  0.80303817  0.23225824  0.67343319     0.79210
H2395       H  0.82822338  0.40738036  0.62707938     0.42240
H2396       H  0.77542318  0.40939854  0.57685349     0.41210
H2397       H  0.70978187  0.32959441  0.64020036     0.40890
H2398       H  0.70620447  0.27139821  0.59028359     0.38820
H2399       H  0.77210922  0.19070773  0.58293692     0.41960
H2400       H  0.82944362  0.18752361  0.62940208     0.36740
H2401       H  0.89775432  0.26818939  0.62244448     0.42860
H2402       H  0.89959735  0.32569214  0.58607686     0.39270
H2403       H  0.70455515  0.23670181  0.60951651     0.44190
H2404       H  0.85684670  0.18566527  0.60020958     0.42910
H2405       H  0.90211580  0.35766847  0.61382471     0.43050
H2406       H  0.74638207  0.41129194  0.60105550     0.43410
C2407       C  0.80236822  0.05207361  0.60637498    -0.02660
C2408       C  0.54912315  0.04660391  0.09965320    -0.02660
C2409       C  0.59124404  0.08600586  0.11405585    -0.26490
C2410       C  0.57041427  0.06570963  0.13298061    -0.14560
C2411       C  0.57120848  0.06348051  0.18327214     0.36070
C2412       C  0.58662980  0.08492874  0.21005135    -0.25940
C2413       C  0.60592708  0.10592830  0.19053213    -0.15180
C2414       C  0.60893706  0.10541705  0.14149502     0.37150
N2415       N  0.63050996  0.12351736  0.11943338    -0.89430
H2416       H  0.59658470  0.08438146  0.07806532     0.18270
H2417       H  0.58474450  0.08289506  0.24772479     0.18260
N2418       N  0.55926333  0.03765914  0.20877644    -0.88460
H2419       H  0.62964051  0.12126471  0.08301503     0.35640
H2420       H  0.64932321  0.11371384  0.12954630     0.40730
H2421       H  0.54629859  0.04689436  0.23490418     0.40350
H2422       H  0.57506435  0.02519448  0.22522131     0.35240
C2423       C  0.75540053  0.05965009  0.56112866    -0.26490
C2424       C  0.78063553  0.07343883  0.57702661    -0.14560
C2425       C  0.78407779  0.10598323  0.56368789     0.36070
C2426       C  0.76723232  0.11983153  0.52836468    -0.25940
C2427       C  0.74492448  0.10376605  0.50785394    -0.15180
C2428       C  0.73837014  0.07356550  0.52646517     0.37150
N2429       N  0.71478972  0.05585009  0.51080377    -0.89430
H2430       H  0.74996696  0.03592961  0.57219221     0.18270
H2431       H  0.77117322  0.14400086  0.51749569     0.18260
N2432       N  0.80295574  0.12617427  0.58794833    -0.88460
H2433       H  0.72204474  0.03527815  0.49434443     0.35640
H2434       H  0.70353512  0.06823325  0.48585850     0.40730
H2435       H  0.79506085  0.12972892  0.62171753     0.40350
H2436       H  0.80417556  0.14840945  0.57219308     0.35240
C2437       C  0.57852488  0.24916889  0.58039943    -0.26490
C2438       C  0.57102383  0.28172566  0.57437692    -0.14560
C2439       C  0.58268384  0.29559795  0.53228951     0.36070
C2440       C  0.60215987  0.27920712  0.50406416    -0.25940
C2441       C  0.61022090  0.24791058  0.51257757    -0.15180
C2442       C  0.59756233  0.23279008  0.55097976     0.37150
N2443       N  0.60215914  0.19985811  0.55923200    -0.89430
H2444       H  0.56887058  0.23447896  0.60610003     0.18270
H2445       H  0.61026666  0.29106284  0.47329553     0.18260
N2446       N  0.57375240  0.32577872  0.51504413    -0.88460
H2447       H  0.62311281  0.19642550  0.56571364     0.35640
H2448       H  0.59673462  0.18708667  0.52921558     0.40730
H2449       H  0.56424192  0.32200143  0.48275637     0.40350
H2450       H  0.59105703  0.33992470  0.50839122     0.35240
C2451       C  0.79103783  0.26713232  0.16241040    -0.26490
C2452       C  0.78021195  0.28506741  0.12481319    -0.14560
C2453       C  0.75107858  0.28052020  0.11634125     0.36070
C2454       C  0.73483672  0.26148094  0.14687873    -0.25940
C2455       C  0.74590060  0.24649866  0.18628667    -0.15180
C2456       C  0.77462454  0.24885180  0.19304676     0.37150
N2457       N  0.78727072  0.23250773  0.23136525    -0.89430
H2458       H  0.81298069  0.26813705  0.16896124     0.18270
H2459       H  0.71292002  0.25929022  0.14044292     0.18260
N2460       N  0.73661629  0.29344138  0.07725385    -0.88460
H2461       H  0.80854531  0.23651273  0.23184583     0.35640
H2462       H  0.78448531  0.20821390  0.22585943     0.40730
H2463       H  0.74745118  0.29107188  0.04592528     0.40350
H2464       H  0.73103572  0.31680460  0.08382532     0.35240
C2465       C  0.91589194  0.12402711  0.30846415    -0.26490
C2466       C  0.91632255  0.15762615  0.30816805    -0.14560
C2467       C  0.90467083  0.17286428  0.26812285     0.36070
C2468       C  0.89330025  0.15460164  0.23164370    -0.25940
C2469       C  0.89349352  0.12143290  0.23231886    -0.15180
C2470       C  0.90538606  0.10600472  0.27100727     0.37150
N2471       N  0.90640455  0.07206943  0.27448270    -0.89430
H2472       H  0.92390658  0.11101715  0.33785514     0.18270
H2473       H  0.88361557  0.16646273  0.20248510     0.18260
N2474       N  0.90517929  0.20687780  0.26365808    -0.88460
H2475       H  0.92715212  0.06549814  0.27582377     0.35640
H2476       H  0.89821339  0.06089839  0.24508452     0.40730
H2477       H  0.89271094  0.21686020  0.28964709     0.40350
H2478       H  0.89694425  0.21396165  0.23165666     0.35240
C2479       C  0.96570076  0.18846055  0.27934141    -0.26490
C2480       C  0.95246155  0.20037877  0.32030975    -0.14560
C2481       C  0.95784547  0.23325644  0.32963097     0.36070
C2482       C  0.97835413  0.24996881  0.30389962    -0.25940
C2483       C  0.99242683  0.23604023  0.26643427    -0.15180
C2484       C  0.98625505  0.20457528  0.25476962     0.37150
N2485       N  0.50015521  0.18937490  0.21600115    -0.89430
H2486       H  0.95980845  0.16586133  0.26476733     0.18270
H2487       H  0.98195240  0.27471708  0.31061449     0.18260
N2488       N  0.94101067  0.25127278  0.36084987    -0.88460
H2489       H  0.49311990  0.16615684  0.21121703     0.35640
H2490       H  0.52104081  0.18775677  0.22445136     0.40730
H2491       H  0.93079766  0.26867346  0.34175630     0.40350
H2492       H  0.95365696  0.26199701  0.38581357     0.35240
C2493       C  0.93933864  0.14437436  0.42365230    -0.26490
C2494       C  0.94973725  0.15385417  0.37934306    -0.14560
C2495       C  0.97610149  0.13993013  0.36691933     0.36070
C2496       C  0.49265173  0.12529884  0.40112820    -0.25940
C2497       C  0.98309844  0.12021953  0.44643905    -0.15180
C2498       C  0.95550672  0.12847923  0.45681675     0.37150
N2499       N  0.94338359  0.12024502  0.50099215    -0.89430
H2500       H  0.91818214  0.14918139  0.43344766     0.18270
H2501       H  0.51304168  0.11680903  0.39174788     0.18260
N2502       N  0.48532869  0.13689962  0.31948088    -0.88460
H2503       H  0.92618664  0.10590497  0.49471346     0.35640
H2504       H  0.93655813  0.14108580  0.51725013     0.40730
H2505       H  0.97325141  0.11938133  0.30370317     0.40350
H2506       H  0.50572927  0.12901945  0.31718970     0.35240
C2507       C  0.91909522  0.21096573  0.42142256    -0.26490
C2508       C  0.90946961  0.19546821  0.38037819    -0.14560
C2509       C  0.87977727  0.19513783  0.37601258     0.36070
C2510       C  0.86256158  0.21330783  0.40661450    -0.25940
C2511       C  0.87302303  0.22988661  0.44522342    -0.15180
C2512       C  0.90174497  0.22791520  0.45272774     0.37150
N2513       N  0.91371693  0.24344426  0.49237962    -0.89430
H2514       H  0.94094031  0.21033197  0.42907810     0.18270
H2515       H  0.84042812  0.21264668  0.40175435     0.18260
N2516       N  0.86612153  0.17493435  0.34315725    -0.88460
H2517       H  0.92851874  0.25951853  0.48018501     0.35640
H2518       H  0.92379320  0.22634174  0.51232953     0.40730
H2519       H  0.85329461  0.18886288  0.32240253     0.40350
H2520       H  0.85364119  0.15909118  0.36177870     0.35240
C2521       C  0.66811340  0.38643281  0.29004248    -0.26490
C2522       C  0.65513845  0.40757402  0.32191076    -0.14560
C2523       C  0.62584734  0.41217606  0.31615040     0.36070
C2524       C  0.61138168  0.39453734  0.28271221    -0.25940
C2525       C  0.62480923  0.37464222  0.25103860    -0.15180
C2526       C  0.65350268  0.37058580  0.25435945     0.37150
N2527       N  0.66769059  0.35003230  0.22200264    -0.89430
H2528       H  0.69024556  0.38334855  0.29167894     0.18270
H2529       H  0.58936326  0.39827425  0.27926062     0.18260
N2530       N  0.61063073  0.43693220  0.33931533    -0.88460
H2531       H  0.68860620  0.34860783  0.23032158     0.35640
H2532       H  0.66674678  0.36041339  0.18890928     0.40730
H2533       H  0.60206514  0.45174584  0.31407628     0.40350
H2534       H  0.59383597  0.42669557  0.35671867     0.35240
C2535       C  0.69172287  0.47834946  0.23722758    -0.26490
C2536       C  0.72030295  0.48246381  0.24006443    -0.14560
C2537       C  0.73215927  0.47531302  0.28479664     0.36070
C2538       C  0.71575502  0.46403857  0.32257287    -0.25940
C2539       C  0.68901266  0.45232573  0.31634802    -0.15180
C2540       C  0.67599612  0.46467520  0.27472936     0.37150
N2541       N  0.64663413  0.46668572  0.27222709    -0.89430
H2542       H  0.68131800  0.98627207  0.20600467     0.18270
H2543       H  0.72474710  0.46289900  0.35700804     0.18260
N2544       N  0.76124315  0.47842244  0.29230038    -0.88460
H2545       H  0.64191879  0.95275045  0.23836230     0.35640
H2546       H  0.64058505  0.48368213  0.29697380     0.40730
H2547       H  0.77056910  0.45880961  0.27625740     0.40350
H2548       H  0.76600777  0.47659454  0.32782007     0.35240
C2549       C  0.62088177  0.45106186  0.45328642    -0.26490
C2550       C  0.62317151  0.48373199  0.45623399    -0.14560
C2551       C  0.64451998  0.99856496  0.43008757     0.36070
C2552       C  0.66090904  0.48048218  0.39846746    -0.25940
C2553       C  0.65765603  0.44714200  0.39260291    -0.15180
C2554       C  0.63748940  0.43279857  0.42326191     0.37150
N2555       N  0.63125834  0.39982800  0.42201532    -0.89430
H2556       H  0.60533797  0.43918015  0.47440399     0.18270
H2557       H  0.67659119  0.99300179  0.37884994     0.18260
N2558       N  0.65125730  0.03144661  0.43664472    -0.88460
H2559       H  0.61040305  0.39653065  0.41447773     0.35640
H2560       H  0.63430405  0.39088013  0.45568528     0.40730
H2561       H  0.63824885  0.04223875  0.46120202     0.40350
H2562       H  0.64809736  0.04286635  0.40492650     0.35240
C2563       C  0.72565217  0.40415373  0.37611812    -0.26490
C2564       C  0.69627446  0.40416444  0.38108895    -0.14560
C2565       C  0.68734667  0.37886968  0.41100375     0.36070
C2566       C  0.70480058  0.36653727  0.44683892    -0.25940
C2567       C  0.73350905  0.37158409  0.44713687    -0.15180
C2568       C  0.74398726  0.38884896  0.40800284     0.37150
N2569       N  0.77305393  0.39171268  0.39889492    -0.89430
H2570       H  0.73531484  0.41397962  0.34551217     0.18270
H2571       H  0.69639509  0.34927268  0.47103442     0.18260
N2572       N  0.66581028  0.35833572  0.39468638    -0.88460
H2573       H  0.77729689  0.37947232  0.36777342     0.35640
H2574       H  0.78481117  0.38131681  0.42503558     0.40730
H2575       H  0.65849521  0.34421065  0.42212506     0.40350
H2576       H  0.67453299  0.34295200  0.36993257     0.35240
C2577       C  0.61202112  0.12755086  0.81273858    -0.26490
C2578       C  0.62268552  0.11623170  0.77026611    -0.14560
C2579       C  0.65117140  0.12032068  0.76131964     0.36070
C2580       C  0.66689845  0.13976840  0.79076796    -0.25940
C2581       C  0.65684957  0.15223427  0.83367375    -0.15180
C2582       C  0.62862760  0.14416376  0.84503241     0.37150
N2583       N  0.61659813  0.15150709  0.88981733    -0.89430
H2584       H  0.59046504  0.12357515  0.82113984     0.18270
H2585       H  0.68743908  0.14433902  0.77871862     0.18260
N2586       N  0.66499226  0.10495470  0.72259683    -0.88460
H2587       H  0.59897707  0.16520741  0.88432101     0.35640
H2588       H  0.60998948  0.13040476  0.90533093     0.40730
H2589       H  0.65386187  0.08502771  0.71191922     0.40350
H2590       H  0.68324591  0.09514253  0.73527929     0.35240
C2591       C  0.63618256  0.21428529  0.87088841    -0.26490
C2592       C  0.65734892  0.19729329  0.89488615    -0.14560
C2593       C  0.65692325  0.20072801  0.94505078     0.36070
C2594       C  0.63699785  0.21911665  0.96727263    -0.25940
C2595       C  0.61543201  0.23356515  0.94371875    -0.15180
C2596       C  0.61530291  0.23194867  0.89453512     0.37150
N2597       N  0.59330500  0.24636880  0.86889943    -0.89430
H2598       H  0.63485864  0.21198448  0.83319466     0.18270
H2599       H  0.63799650  0.22079875  0.00505120     0.18260
N2600       N  0.67550145  0.18510824  0.97585730    -0.88460
H2601       H  0.59547162  0.24162385  0.83311500     0.35640
H2602       H  0.59521990  0.27091470  0.87282568     0.40730
H2603       H  0.66420326  0.17056444  0.99857118     0.40350
H2604       H  0.68589331  0.20218383  0.99573254     0.35240
C2605       C  0.71698158  0.16497643  0.92218357    -0.26490
C2606       C  0.69292434  0.15195902  0.90187989    -0.14560
C2607       C  0.68446772  0.12160856  0.91933174     0.36070
C2608       C  0.69905871  0.10655212  0.95587766    -0.25940
C2609       C  0.72227847  0.12031285  0.97640323    -0.15180
C2610       C  0.73107995  0.15030686  0.95880534     0.37150
N2611       N  0.75343620  0.16783810  0.97896201    -0.89430
H2612       H  0.72390527  0.18837531  0.91197196     0.18270
H2613       H  0.69232061  0.08358336  0.96802865     0.18260
N2614       N  0.66134772  0.10528286  0.90031795    -0.88460
H2615       H  0.77215741  0.15709685  0.97031293     0.35640
H2616       H  0.75080967  0.16884495  0.01529412     0.40730
H2617       H  0.64838014  0.09821395  0.92777120     0.40350
H2618       H  0.66848494  0.08523065  0.88261425     0.35240
C2619       C  0.69382201  0.22405464  0.82006300    -0.26490
C2620       C  0.69844030  0.19196489  0.83314681    -0.14560
C2621       C  0.72391955  0.17859169  0.81444584     0.36070
C2622       C  0.74173688  0.19667383  0.78529487    -0.25940
C2623       C  0.73563456  0.22763266  0.77142848    -0.15180
C2624       C  0.71095277  0.24101391  0.78865536     0.37150
N2625       N  0.70184638  0.27167667  0.77385680    -0.89430
H2626       H  0.67648771  0.23716221  0.83304140     0.18270
H2627       H  0.76022944  0.18559303  0.77138998     0.18260
N2628       N  0.73258761  0.14636404  0.82168531    -0.88460
H2629       H  0.68428115  0.26810374  0.75348845     0.35640
H2630       H  0.71627939  0.28313977  0.75259159     0.40730
H2631       H  0.71720672  0.13135432  0.83400707     0.40350
H2632       H  0.74903559  0.14643554  0.84512052     0.35240
C2633       C  0.59763820  0.35865198  0.67626162    -0.26490
C2634       C  0.58710141  0.35868622  0.72216037    -0.14560
C2635       C  0.56237367  0.34166493  0.73011447     0.36070
C2636       C  0.54980975  0.32505789  0.69249393    -0.25940
C2637       C  0.56197101  0.32187883  0.64666903    -0.15180
C2638       C  0.58589530  0.34094396  0.63949267     0.37150
N2639       N  0.59896171  0.34320265  0.59497660    -0.89430
H2640       H  0.61616350  0.37218912  0.66867549     0.18270
H2641       H  0.53022404  0.31410624  0.70057628     0.18260
N2642       N  0.54962901  0.33963245  0.77562549    -0.88460
H2643       H  0.61939851  0.33569563  0.59814983     0.35640
H2644       H  0.59910855  0.36703945  0.58502384     0.40730
H2645       H  0.56082656  0.35186407  0.80090187     0.40350
H2646       H  0.54980695  0.31580822  0.78556411     0.35240
C2647       C  0.56145468  0.49444085  0.98726658    -0.26490
C2648       C  0.59020413  0.49332250  0.98498241    -0.14560
C2649       C  0.60516014  0.00580906  0.02365818     0.36070
C2650       C  0.59166840  0.02071667  0.06103493    -0.25940
C2651       C  0.56315787  0.02538672  0.06127609    -0.15180
C2652       C  0.54785214  0.50994375  0.02488092     0.37150
N2653       N  0.51838402  0.50981429  0.02581383    -0.89430
H2654       H  0.54944498  0.48415086  0.95919778     0.18270
H2655       H  0.60412685  0.02856863  0.09003459     0.18260
N2656       N  0.63451715  0.00358133  0.02571490    -0.88460
H2657       H  0.51167934  0.48624865  0.02601450     0.35640
H2658       H  0.51152293  0.02039018  0.99501431     0.40730
H2659       H  0.63962609  0.99175389  0.05656065     0.40350
H2660       H  0.64260923  0.02653829  0.02774668     0.35240
C2661       C  0.76041335  0.37038943  0.03008920    -0.26490
C2662       C  0.76654704  0.36502991  0.98249096    -0.14560
C2663       C  0.78688265  0.34239663  0.97140058     0.36070
C2664       C  0.79890924  0.32417908  0.00762750    -0.25940
C2665       C  0.79046327  0.32679302  0.05549842    -0.15180
C2666       C  0.77254928  0.35250281  0.06616928     0.37150
N2667       N  0.76629479  0.36058435  0.11385700    -0.89430
H2668       H  0.74532081  0.38828815  0.03946036     0.18270
H2669       H  0.81509458  0.30803159  0.99750566     0.18260
N2670       N  0.79487466  0.33740386  0.92338364    -0.88460
H2671       H  0.74492579  0.36100532  0.11862818     0.35640
H2672       H  0.77348086  0.38360761  0.11986372     0.40730
H2673       H  0.77777878  0.32838901  0.90562983     0.40350
H2674       H  0.81027420  0.32015615  0.92087987     0.35240
C2675       C  0.78064020  0.48180259  0.69123938    -0.26490
C2676       C  0.76256619  0.49772969  0.72180004    -0.14560
C2677       C  0.75420959  0.02860035  0.70896709     0.36070
C2678       C  0.76392556  0.04283591  0.66746769    -0.25940
C2679       C  0.78492289  0.02891026  0.63937035    -0.15180
C2680       C  0.79174118  0.49668494  0.65056619     0.37150
N2681       N  0.80876779  0.47796714  0.62026032    -0.89430
H2682       H  0.78542993  0.45715620  0.69787578     0.18270
H2683       H  0.75776191  0.06707345  0.66097816     0.18260
N2684       N  0.73602488  0.04618398  0.73908693    -0.88460
H2685       H  0.79725917  0.45852810  0.60878504     0.35640
H2686       H  0.82537682  0.46949448  0.63965632     0.40730
H2687       H  0.71858482  0.05227047  0.71984812     0.40350
H2688       H  0.74602018  0.06712672  0.74896205     0.35240
C2689       C  0.81920588  0.07040680  0.69025729    -0.26490
C2690       C  0.82210777  0.07264517  0.64054478    -0.14560
C2691       C  0.84588980  0.09087918  0.62559629     0.36070
C2692       C  0.86347681  0.10554531  0.65896741    -0.25940
C2693       C  0.85848045  0.10398784  0.70759355    -0.15180
C2694       C  0.83501526  0.08728905  0.72262819     0.37150
N2695       N  0.82690162  0.08729911  0.77128109    -0.89430
H2696       H  0.80518941  0.05459824  0.70688080     0.18270
H2697       H  0.88129350  0.11855657  0.64633362     0.18260
N2698       N  0.85343629  0.09520395  0.57719639    -0.88460
H2699       H  0.80952801  0.07313837  0.77722877     0.35640
H2700       H  0.82094275  0.11043216  0.77986983     0.40730
H2701       H  0.83881678  0.08630770  0.55414916     0.40350
H2702       H  0.87197984  0.08325968  0.57095272     0.35240
C2703       C  0.52482110  0.11313695  0.01373577    -0.26490
C2704       C  0.99634862  0.11240528  0.01969354    -0.14560
C2705       C  0.98426844  0.08969891  0.04848262     0.36070
C2706       C  0.00127754  0.06855238  0.07195364    -0.25940
C2707       C  0.53073038  0.07048328  0.07081074    -0.15180
C2708       C  0.54179324  0.09126191  0.03600243     0.37150
N2709       N  0.56848809  0.08647987  0.01570722    -0.89430
H2710       H  0.53370944  0.12841875  0.98712968     0.18270
H2711       H  0.99064270  0.04862247  0.08695546     0.18260
N2712       N  0.95474123  0.08617145  0.05009320    -0.88460
H2713       H  0.57869315  0.10835281  0.01474713     0.35640
H2714       H  0.56597936  0.07896276  0.98106060     0.40730
H2715       H  0.94664583  0.10660237  0.06576141     0.40350
H2716       H  0.94895656  0.06724829  0.07155839     0.35240
C2717       C  0.83116945  0.23719855  0.01668671    -0.26490
C2718       C  0.85946363  0.23889888  0.02521365    -0.14560
C2719       C  0.86877229  0.25596972  0.06431400     0.36070
C2720       C  0.84981637  0.27475212  0.08972095    -0.25940
C2721       C  0.82207305  0.27856505  0.07485156    -0.15180
C2722       C  0.81245992  0.25609016  0.04151954     0.37150
N2723       N  0.78386824  0.25340993  0.03058781    -0.89430
H2724       H  0.82357796  0.22226812  0.98857453     0.18270
H2725       H  0.85734592  0.28697428  0.12031389     0.18260
N2726       N  0.89748378  0.25575253  0.07639626    -0.88460
H2727       H  0.77764196  0.23011345  0.03725958     0.35640
H2728       H  0.78141870  0.25764051  0.99481720     0.40730
H2729       H  0.90232366  0.23284301  0.08740074     0.40350
H2730       H  0.90111523  0.27076159  0.10491873     0.35240
C2731       C  0.54003214  0.25524168  0.66797534    -0.26490
C2732       C  0.52817493  0.27594030  0.63480671    -0.14560
C2733       C  0.99835130  0.27783061  0.63668412     0.36070
C2734       C  0.98281434  0.25657636  0.66384237    -0.25940
C2735       C  0.99520906  0.23581310  0.69474267    -0.15180
C2736       C  0.52435217  0.23483521  0.69646316     0.37150
N2737       N  0.53885433  0.21411269  0.72765814    -0.89430
H2738       H  0.56207686  0.25601736  0.67372511     0.18270
H2739       H  0.96055335  0.25909253  0.66482478     0.18260
N2740       N  0.98315527  0.30344199  0.61669025    -0.88460
H2741       H  0.55167600  0.19968134  0.70714203     0.35640
H2742       H  0.52538889  0.19859596  0.74470988     0.40730
H2743       H  0.97321592  0.31592155  0.64364084     0.40350
H2744       H  0.96807787  0.29398546  0.59464265     0.35240
C2745       C  0.81104850  0.33454789  0.17473594    -0.26490
C2746       C  0.81942861  0.32832751  0.12821128    -0.14560
C2747       C  0.84360795  0.34473336  0.11256472     0.36070
C2748       C  0.86093067  0.36072157  0.14488221    -0.25940
C2749       C  0.85393472  0.36310014  0.19264289    -0.15180
C2750       C  0.82742903  0.35185073  0.20636323     0.37150
N2751       N  0.81672072  0.35847346  0.25242647    -0.89430
H2752       H  0.79112779  0.32648657  0.18695433     0.18270
H2753       H  0.88021403  0.37073714  0.13251084     0.18260
N2754       N  0.85147791  0.34392318  0.06414558    -0.88460
H2755       H  0.79741798  0.34792569  0.25756181     0.35640
H2756       H  0.81360126  0.38295048  0.25461004     0.40730
H2757       H  0.85230106  0.36726685  0.05209677     0.40350
H2758       H  0.87134051  0.33445450  0.06148764     0.35240
C2759       C  0.01472853  0.47564802  0.16687572    -0.26490
C2760       C  0.99480987  0.49166377  0.19324973    -0.14560
C2761       C  0.99259344  0.02466427  0.19039072     0.36070
C2762       C  0.01086504  0.04126390  0.16152323    -0.25940
C2763       C  0.53021010  0.02563102  0.13173634    -0.15180
C2764       C  0.53296277  0.49215673  0.13739468     0.37150
N2765       N  0.55582864  0.47510046  0.11796049    -0.89430
H2766       H  0.01741536  0.45036519  0.17165649     0.18270
H2767       H  0.01010678  0.06693160  0.16198621     0.18260
N2768       N  0.97214097  0.04122597  0.21777452    -0.88460
H2769       H  0.54823773  0.45650809  0.09749848     0.35640
H2770       H  0.56707611  0.46546711  0.14551888     0.40730
H2771       H  0.95276460  0.03390535  0.20603353     0.40350
H2772       H  0.97330885  0.06563790  0.21190082     0.35240
C2773       C  0.99747116  0.32114561  0.50689306    -0.26490
C2774       C  0.99164019  0.35322917  0.51532133    -0.14560
C2775       C  0.00556516  0.36877272  0.55189406     0.36070
C2776       C  0.52398179  0.35172725  0.58056494    -0.25940
C2777       C  0.52950795  0.31913101  0.57318128    -0.15180
C2778       C  0.01601119  0.30399592  0.53462922     0.37150
N2779       N  0.02115075  0.27119554  0.52347267    -0.89430
H2780       H  0.98745455  0.30922016  0.47793611     0.18270
H2781       H  0.53373339  0.36431697  0.60897033     0.18260
N2782       N  0.00193448  0.40217339  0.55882166    -0.88460
H2783       H  0.01147982  0.26468126  0.49228704     0.35640
H2784       H  0.51223582  0.25719543  0.54951693     0.40730
H2785       H  0.00839472  0.41358091  0.52822097     0.40350
H2786       H  0.51551338  0.40983484  0.58460841     0.35240
C2787       C  0.83430996  0.50737987  0.49600316    -0.26490
C2788       C  0.86073460  0.49940270  0.51088189    -0.14560
C2789       C  0.86770187  0.00680861  0.55764254     0.36070
C2790       C  0.84850623  0.02245465  0.58708837    -0.25940
C2791       C  0.82179647  0.03205650  0.57186471    -0.15180
C2792       C  0.81498666  0.02264171  0.52505643     0.37150
N2793       N  0.78831212  0.02696183  0.50570245    -0.89430
H2794       H  0.82796966  0.50094126  0.46089733     0.18270
H2795       H  0.85473882  0.02679008  0.62282884     0.18260
N2796       N  0.89423127  0.99942540  0.57619385    -0.88460
H2797       H  0.79020790  0.04061610  0.47536979     0.35640
H2798       H  0.78028528  0.00478797  0.49648324     0.40730
H2799       H  0.90922240  0.50921781  0.55408795     0.40350
H2800       H  0.89654118  0.97481410  0.57641840     0.35240
C2801       C  0.93373254  0.47046209  0.92824368    -0.26490
C2802       C  0.91476082  0.45443489  0.89801251    -0.14560
C2803       C  0.88635564  0.45843147  0.90859682     0.36070
C2804       C  0.87855322  0.47392287  0.95042102    -0.25940
C2805       C  0.89745831  0.48905037  0.98060801    -0.15180
C2806       C  0.92537554  0.98768472  0.96850697     0.37150
N2807       N  0.94550034  0.00307622  0.99751189    -0.89430
H2808       H  0.95561964  0.46815364  0.92148778     0.18270
H2809       H  0.85695430  0.47405346  0.95930983     0.18260
N2810       N  0.86517196  0.44697148  0.87799300    -0.88460
H2811       H  0.96521402  0.00039564  0.98309652     0.35640
H2812       H  0.94563494  0.99142095  0.02972562     0.40730
H2813       H  0.86587890  0.46025766  0.84732323     0.40350
H2814       H  0.84554316  0.45051214  0.89243673     0.35240
C2815       C  0.97617055  0.45180644  0.83252538    -0.26490
C2816       C  0.94702189  0.45394544  0.83179348    -0.14560
C2817       C  0.93560701  0.47925394  0.80543236     0.36070
C2818       C  0.95241087  0.99759930  0.77587068    -0.25940
C2819       C  0.98072818  0.99203347  0.77240193    -0.15180
C2820       C  0.49286989  0.46930688  0.80151542     0.37150
N2821       N  0.52188953  0.46273720  0.79754492    -0.89430
H2822       H  0.98645401  0.43655989  0.85687550     0.18270
H2823       H  0.94305862  0.01559367  0.75419452     0.18260
N2824       N  0.90664067  0.98542271  0.80672627    -0.88460
H2825       H  0.52737013  0.44394335  0.81930193     0.35640
H2826       H  0.53253250  0.48265687  0.80969958     0.40730
H2827       H  0.89896967  0.48332799  0.77278247     0.40350
H2828       H  0.90374989  0.00882666  0.81784377     0.35240
C2829       C  0.89320525  0.39015280  0.74986034    -0.26490
C2830       C  0.87146773  0.37201990  0.76890244    -0.14560
C2831       C  0.86854462  0.37296963  0.81876564     0.36070
C2832       C  0.88738809  0.39104506  0.84603945    -0.25940
C2833       C  0.90763729  0.41156930  0.82648544    -0.15180
C2834       C  0.91111529  0.40888503  0.77681211     0.37150
N2835       N  0.93395100  0.42291114  0.75244893    -0.89430
H2836       H  0.89731452  0.38938759  0.71255056     0.18270
H2837       H  0.88526920  0.38999180  0.88375110     0.18260
N2838       N  0.84692833  0.35677438  0.84385114    -0.88460
H2839       H  0.94536666  0.40491331  0.73618779     0.35640
H2840       H  0.92624753  0.43764396  0.72627677     0.40730
H2841       H  0.83214209  0.34732032  0.82177984     0.40350
H2842       H  0.83631192  0.37374810  0.86373713     0.35240
C2843       C  0.93545872  0.39874507  0.93471461    -0.26490
C2844       C  0.94324578  0.40488015  0.88793017    -0.14560
C2845       C  0.96385195  0.38465372  0.86867774     0.36070
C2846       C  0.48146310  0.36791650  0.89895294    -0.25940
C2847       C  0.97708948  0.36869397  0.94771073    -0.15180
C2848       C  0.95213346  0.38190773  0.96465482     0.37150
N2849       N  0.94247234  0.37821858  0.01183900    -0.89430
H2850       H  0.91658046  0.40814994  0.94956118     0.18270
H2851       H  0.49885703  0.35506622  0.88436413     0.18260
N2852       N  0.96756372  0.38182754  0.81907782    -0.88460
H2853       H  0.95465474  0.39158445  0.03454166     0.35640
H2854       H  0.94292242  0.35419669  0.02050421     0.40730
H2855       H  0.96446151  0.35807660  0.80992959     0.40350
H2856       H  0.48799226  0.38752557  0.81076308     0.35240
C2857       C  0.92764740  0.93105725  0.86001534    -0.02660
O2858       O  0.98789642  0.98618866  0.42330750    -0.75460
O2859       O  0.96160641  0.96257636  0.48028483    -0.54370
C2860       C  0.98151461  0.98071798  0.46566467     0.78270
O2861       O  0.88376726  0.98971479  0.27178872    -0.60060
O2862       O  0.90907448  0.96276554  0.21651772    -0.53090
C2863       C  0.89187682  0.98384332  0.22957929     0.70280
O2864       O  0.87521865  0.98952757  0.43248515    -0.74620
O2865       O  0.89701371  0.96247892  0.49027941    -0.55190
C2866       C  0.87931753  0.98302451  0.47609098     0.76280
O2867       O  0.98468605  0.98294507  0.27192416    -0.59770
O2868       O  0.96188474  0.95373686  0.21693545    -0.52890
C2869       C  0.97950277  0.97475448  0.22952501     0.72880
Zr2870     Zr  0.97042605  0.96945046  0.35096547     2.54710
O2871       O  0.96910755  0.52712785  0.34941659    -0.80330
O2872       O  0.52045436  0.96520736  0.34563872    -0.93750
Zr2873     Zr  0.88975643  0.97408351  0.35278175     2.64680
O2874       O  0.88584063  0.53133388  0.35925329    -0.98700
O2875       O  0.83978590  0.97051280  0.34641260    -0.80760
O2876       O  0.93002960  0.97336661  0.39853010    -0.84120
O2877       O  0.93053182  0.97150915  0.30662884    -2.18830
O2878       O  0.98911666  0.86610409  0.28906453    -0.67510
O2879       O  0.96621663  0.89112085  0.23021214    -0.52080
C2880       C  0.98588209  0.87419773  0.24670231     0.71260
O2881       O  0.86816016  0.86447245  0.42135698    -0.60420
O2882       O  0.89183952  0.89093451  0.47874928    -0.52400
C2883       C  0.87309583  0.87141703  0.46375305     0.73060
O2884       O  0.86804572  0.87061649  0.27147492    -0.71820
O2885       O  0.89528867  0.89281676  0.21574718    -0.50490
C2886       C  0.87380647  0.87655378  0.22845123     0.74440
O2887       O  0.97947132  0.86227876  0.43755081    -0.67140
O2888       O  0.95730606  0.89218721  0.49257656    -0.54340
C2889       C  0.97477900  0.87048204  0.48009523     0.72830
Zr2890     Zr  0.96580680  0.87703778  0.35969721     2.77540
O2891       O  0.95807150  0.82080923  0.35978635    -0.97890
O2892       O  0.51554727  0.87215236  0.36801456    -0.78710
Zr2893     Zr  0.88573830  0.88163784  0.34919032     2.70070
O2894       O  0.88440016  0.82411222  0.34307575    -0.79960
O2895       O  0.83605011  0.88873195  0.35536939    -0.99050
Zr2896     Zr  0.92703245  0.92677192  0.44575131     2.21500
Zr2897     Zr  0.92963683  0.92298127  0.26256186     2.11130
O2898       O  0.92750001  0.87595274  0.30769635    -2.47730
O2899       O  0.92410775  0.87911257  0.40113985    -0.79750
O2900       O  0.96933007  0.92151768  0.31015235    -0.71950
O2901       O  0.88700936  0.92775316  0.39733481    -2.32910
O2902       O  0.96845997  0.92464988  0.40108285    -2.29120
O2903       O  0.88739594  0.92801493  0.30469942    -0.73710
H2904       H  0.93253634  0.99009485  0.28731950     0.78290
H2905       H  0.87041984  0.92860914  0.41618975     0.79370
H2906       H  0.92743339  0.85726498  0.28803453     0.81600
H2907       H  0.98457863  0.92398988  0.42068186     0.79210
H2908       H  0.83332848  0.96327676  0.37754009     0.42240
H2909       H  0.83131940  0.90345755  0.32979759     0.41210
H2910       H  0.89844469  0.81676452  0.36551341     0.40890
H2911       H  0.95507864  0.81615976  0.32625710     0.38820
H2912       H  0.52293562  0.89310582  0.35868698     0.41960
H2913       H  0.52601820  0.95373363  0.37419883     0.36740
H2914       H  0.95606502  0.53310123  0.37476292     0.42860
H2915       H  0.90464045  0.53924920  0.35239647     0.39270
H2916       H  0.97654564  0.81224006  0.36689789     0.44190
H2917       H  0.52727755  0.98711286  0.35038804     0.42910
H2918       H  0.87456209  0.53774265  0.33218050     0.43050
H2919       H  0.82817255  0.86806231  0.34579650     0.43410
O2920       O  0.98492062  0.73985069  0.92393521    -0.75460
O2921       O  0.96017734  0.71749902  0.98363428    -0.54370
C2922       C  0.97900694  0.73541584  0.96663176     0.78270
O2923       O  0.86745058  0.73292173  0.79400038    -0.60060
O2924       O  0.89167102  0.70744500  0.73613040    -0.53090
C2925       C  0.87260793  0.72610561  0.75140962     0.70280
O2926       O  0.87134751  0.73209474  0.94660656    -0.74620
O2927       O  0.89900003  0.70913138  0.00057976    -0.55190
C2928       C  0.87814177  0.72598580  0.98896201     0.76280
O2929       O  0.98452702  0.73069605  0.77413306    -0.59770
O2930       O  0.95673233  0.70498420  0.72251973    -0.52890
C2931       C  0.97774641  0.72249499  0.73258509     0.72880
Zr2932     Zr  0.96733181  0.72309384  0.85262166     2.54710
O2933       O  0.96452286  0.78051283  0.84658164    -0.80330
O2934       O  0.51754977  0.72315727  0.84651014    -0.93750
Zr2935     Zr  0.88648519  0.72055052  0.86730592     2.64680
O2936       O  0.88864243  0.77815770  0.87072984    -0.98700
O2937       O  0.83626771  0.72152265  0.86920584    -0.80760
O2938       O  0.92894469  0.72524379  0.90532758    -0.84120
O2939       O  0.92481103  0.72258032  0.81414405    -2.18830
O2940       O  0.98678218  0.61995348  0.79058367    -0.67510
O2941       O  0.95880572  0.64054619  0.73435614    -0.52080
C2942       C  0.97974656  0.62488262  0.74871063     0.71260
O2943       O  0.89709843  0.60336791  0.94301220    -0.60420
O2944       O  0.90700724  0.64097536  0.99804974    -0.52400
C2945       C  0.89710197  0.61438453  0.98507948     0.73060
O2946       O  0.87420100  0.61277920  0.78635434    -0.71820
O2947       O  0.89503612  0.64006193  0.72764309    -0.50490
C2948       C  0.87726799  0.61982164  0.74254071     0.74440
O2949       O  0.98382577  0.61811115  0.94250572    -0.67140
O2950       O  0.96280265  0.64943280  0.99722434    -0.54340
C2951       C  0.97986624  0.62790061  0.98450996     0.72830
Zr2952     Zr  0.96926960  0.63061090  0.86443775     2.77540
O2953       O  0.97055910  0.57288337  0.86287087    -0.97890
O2954       O  0.51934767  0.63346170  0.86946623    -0.78710
Zr2955     Zr  0.88889508  0.62704804  0.86653629     2.70070
O2956       O  0.87709543  0.57100440  0.86317298    -0.79960
O2957       O  0.84017129  0.63302757  0.88469790    -0.99050
Zr2958     Zr  0.93040437  0.67875026  0.95144765     2.21500
Zr2959     Zr  0.92553779  0.67378396  0.77238468     2.11130
O2960       O  0.92845511  0.62658729  0.81855204    -2.47730
O2961       O  0.92989256  0.62971747  0.91051504    -0.79750
O2962       O  0.96751819  0.67472685  0.81359651    -0.71950
O2963       O  0.88742941  0.67409009  0.91238816    -2.32910
O2964       O  0.97059596  0.67905801  0.90374599    -2.29120
O2965       O  0.88590445  0.67338581  0.82167507    -0.73710
H2966       H  0.92369118  0.74054133  0.79339518     0.78290
H2967       H  0.87217364  0.67286074  0.93422112     0.79370
H2968       H  0.92884005  0.60775788  0.79919174     0.81600
H2969       H  0.98728705  0.67993439  0.92192530     0.79210
H2970       H  0.83090908  0.70707503  0.89493625     0.42240
H2971       H  0.83434241  0.65152903  0.86606944     0.41210
H2972       H  0.89504406  0.55997292  0.86523972     0.40890
H2973       H  0.96107883  0.56672593  0.83363060     0.38820
H2974       H  0.52481778  0.64992332  0.84659961     0.41960
H2975       H  0.52398276  0.70967339  0.87249982     0.36740
H2976       H  0.95525982  0.78740283  0.87589943     0.42860
H2977       H  0.89782261  0.78446662  0.84113362     0.39270
H2978       H  0.99017585  0.56763475  0.85697561     0.44190
H2979       H  0.52327786  0.74491193  0.85527685     0.42910
H2980       H  0.86928137  0.78507907  0.86710017     0.43050
H2981       H  0.83141022  0.61473377  0.86885782     0.43410
O2982       O  0.71005311  0.99257626  0.95658424    -0.75460
O2983       O  0.74476673  0.96202326  0.92567600    -0.54370
C2984       C  0.73408916  0.98140780  0.95713483     0.78270
O2985       O  0.63158555  0.86880581  0.94244529    -0.60060
O2986       O  0.59539598  0.89003854  0.90234466    -0.53090
C2987       C  0.60601545  0.87317024  0.93482460     0.70280
O2988       O  0.72207396  0.87300489  0.95393841    -0.74620
O2989       O  0.75691687  0.89629849  0.91204840    -0.55190
C2990       C  0.74769854  0.87910760  0.94659066     0.76280
O2991       O  0.62836466  0.99475085  0.93556200    -0.59770
O2992       O  0.59664576  0.95732971  0.91728201    -0.52890
C2993       C  0.60545824  0.98086001  0.94285857     0.72880
Zr2994     Zr  0.67252275  0.97406826  0.91614052     2.54710
O2995       O  0.67193649  0.96126944  0.99919844    -0.80330
O2996       O  0.67295121  0.53135209  0.91357058    -0.93750
Zr2997     Zr  0.67713439  0.88238390  0.91984889     2.64680
O2998       O  0.67698606  0.88423193  0.00502955    -0.98700
O2999       O  0.67943520  0.82476062  0.91693698    -0.80760
O3000       O  0.70186153  0.92983016  0.91854342    -0.84120
O3001       O  0.64737697  0.92703553  0.91966505    -2.18830
O3002       O  0.63130376  0.98651043  0.76031010    -0.67510
O3003       O  0.59553142  0.96368016  0.80066133    -0.52080
C3004       C  0.60583220  0.98166585  0.76864331     0.71260
O3005       O  0.72011492  0.86872952  0.75952315    -0.60420
O3006       O  0.75545392  0.89234474  0.79969630    -0.52400
C3007       C  0.74551925  0.87409824  0.76728388     0.73060
O3008       O  0.63093885  0.86711016  0.75363280    -0.71820
O3009       O  0.59568979  0.89238636  0.79154100    -0.50490
C3010       C  0.60523102  0.87345170  0.75915229     0.74440
O3011       O  0.71971718  0.98365112  0.74954777    -0.67140
O3012       O  0.75534657  0.96433248  0.79273528    -0.54340
C3013       C  0.74538101  0.98031403  0.75749255     0.72830
Zr3014     Zr  0.67612055  0.97247672  0.78419195     2.77540
O3015       O  0.67630243  0.97095829  0.69895551    -0.97890
O3016       O  0.67811445  0.53000797  0.78995128    -0.78710
Zr3017     Zr  0.67521444  0.88071841  0.78670051     2.70070
O3018       O  0.67745751  0.87733102  0.70168077    -0.79960
O3019       O  0.67212840  0.82410928  0.79955365    -0.99050
Zr3020     Zr  0.73203240  0.92965815  0.85372704     2.21500
Zr3021     Zr  0.61910124  0.92648905  0.85144998     2.11130
O3022       O  0.64828600  0.92660537  0.78361141    -2.47730
O3023       O  0.70306857  0.92667585  0.78648112    -0.79750
O3024       O  0.64565780  0.97411122  0.84888557    -0.71950
O3025       O  0.70493739  0.88157693  0.85246729    -2.32910
O3026       O  0.70350013  0.97592160  0.85168965    -2.29120
O3027       O  0.64760970  0.88000952  0.85407403    -0.73710
H3028       H  0.63661374  0.92721356  0.94821306     0.78290
H3029       H  0.71660182  0.86304688  0.85284593     0.79370
H3030       H  0.63762283  0.92647179  0.75522160     0.81600
H3031       H  0.71438812  0.99511924  0.85194934     0.79210
H3032       H  0.69793398  0.81993269  0.90391468     0.42240
H3033       H  0.66020870  0.82164936  0.82755702     0.41210
H3034       H  0.68371248  0.89861464  0.69164738     0.40890
H3035       H  0.65912902  0.95978916  0.69013489     0.38820
H3036       H  0.66177643  0.53593809  0.80901500     0.41960
H3037       H  0.69217406  0.53732263  0.90565258     0.36740
H3038       H  0.68736516  0.94636853  0.00415767     0.42860
H3039       H  0.65807104  0.89054474  0.01432237     0.39270
H3040       H  0.67331417  0.99325439  0.68966124     0.44190
H3041       H  0.67038051  0.53778598  0.94664978     0.42910
H3042       H  0.67858471  0.86177999  0.01445888     0.43050
H3043       H  0.66056400  0.81642080  0.77344096     0.43410
C3044       C  0.67646491  0.67316008  0.86601556    -0.02660
C3045       C  0.67473211  0.92789255  0.35362212    -0.02660
C3046       C  0.93162901  0.67713126  0.34732974    -0.02660
O3047       O  0.99301499  0.61836858  0.67327253    -0.75460
O3048       O  0.51606238  0.59241027  0.73113894    -0.54370
C3049       C  0.49746296  0.61110196  0.71548365     0.78270
O3050       O  0.99193329  0.49180109  0.54191434    -0.60060
O3051       O  0.51818161  0.51524736  0.48459708    -0.53090
C3052       C  0.99848599  0.49688171  0.49948578     0.70280
O3053       O  0.98944653  0.50202988  0.69282919    -0.74620
O3054       O  0.51722888  0.52539577  0.74687456    -0.55190
C3055       C  0.49676361  0.50778133  0.73516836     0.76280
O3056       O  0.99699849  0.61541987  0.52473926    -0.59770
O3057       O  0.52049026  0.58582369  0.47094886    -0.52890
C3058       C  0.50156506  0.60616792  0.48264829     0.72880
Zr3059     Zr  0.51332428  0.60380717  0.60236665     2.54710
O3060       O  0.96319068  0.60531692  0.59908268    -0.80330
O3061       O  0.51803217  0.66124872  0.59983967    -0.93750
Zr3062     Zr  0.50713649  0.51183431  0.61409565     2.64680
O3063       O  0.95741344  0.51931770  0.61323691    -0.98700
O3064       O  0.50305936  0.95536566  0.62745794    -0.80760
O3065       O  0.50914340  0.55994306  0.65388764    -0.84120
O3066       O  0.51036973  0.55563732  0.56236683    -2.18830
O3067       O  0.61054404  0.61381762  0.53861768    -0.67510
O3068       O  0.58645496  0.58744262  0.48170717    -0.52080
C3069       C  0.60552087  0.60665759  0.49610377     0.71260
O3070       O  0.59619123  0.49066614  0.69209563    -0.60420
O3071       O  0.57177359  0.51795835  0.74791988    -0.52400
C3072       C  0.58905176  0.49688525  0.73462820     0.73060
O3073       O  0.60768784  0.49206842  0.53394586    -0.71820
O3074       O  0.58607058  0.51949329  0.47597262    -0.50490
C3075       C  0.60461641  0.49997745  0.49071654     0.74440
O3076       O  0.61045474  0.60860236  0.69116044    -0.67140
O3077       O  0.58248894  0.58675912  0.74648169    -0.54340
C3078       C  0.60392346  0.60283706  0.73395378     0.72830
Zr3079     Zr  0.59332499  0.59792525  0.61303513     2.77540
O3080       O  0.64358176  0.59600350  0.61251098    -0.97890
O3081       O  0.59104546  0.65479616  0.62495956    -0.78710
Zr3082     Zr  0.58801664  0.50461564  0.61128745     2.70070
O3083       O  0.63787367  0.50115977  0.61796478    -0.79960
O3084       O  0.58325315  0.94721585  0.60736976    -0.99050
Zr3085     Zr  0.54928526  0.55632350  0.70025129     2.21500
Zr3086     Zr  0.55198442  0.55248235  0.51794725     2.11130
O3087       O  0.59158821  0.55116589  0.56699367    -2.47730
O3088       O  0.59123981  0.55131904  0.65762833    -0.79750
O3089       O  0.55512278  0.60105071  0.56077206    -0.71950
O3090       O  0.54739834  0.50794796  0.65761696    -2.32910
O3091       O  0.55168396  0.60322394  0.65434155    -2.29120
O3092       O  0.54757369  0.50617053  0.56588372    -0.73710
H3093       H  0.99436216  0.55577759  0.54251655     0.78290
H3094       H  0.54561068  0.98990459  0.67805746     0.79370
H3095       H  0.60834971  0.55053695  0.54861348     0.81600
H3096       H  0.55195938  0.62193364  0.67395598     0.79210
H3097       H  0.51359640  0.95090673  0.65620988     0.42240
H3098       H  0.57272060  0.94319011  0.57838022     0.41210
H3099       H  0.64375821  0.52297977  0.62605145     0.40890
H3100       H  0.64868755  0.58247598  0.58540616     0.38820
H3101       H  0.57222540  0.66068115  0.61518459     0.41960
H3102       H  0.52117964  0.66776376  0.63271216     0.36740
H3103       H  0.95700857  0.58598354  0.61565478     0.42860
H3104       H  0.95349230  0.52862132  0.58226012     0.39270
H3105       H  0.64962461  0.61761355  0.60369900     0.44190
H3106       H  0.99925006  0.66897713  0.59286841     0.42910
H3107       H  0.94980269  0.49755168  0.61162711     0.43050
H3108       H  0.60206551  0.93941949  0.60018998     0.43410
O3109       O  0.99689841  0.86606096  0.02257357    -0.75460
O3110       O  0.51385645  0.83323835  0.96627850    -0.54370
C3111       C  0.49745555  0.85516162  0.98052264     0.78270
O3112       O  0.61377199  0.86372979  0.17166268    -0.60060
O3113       O  0.58745553  0.84196260  0.22995775    -0.53090
C3114       C  0.60777261  0.85884833  0.21518235     0.70280
O3115       O  0.59863068  0.86376924  0.01191436    -0.74620
O3116       O  0.56968312  0.84099036  0.95875365    -0.55190
C3117       C  0.58943210  0.85921967  0.97028759     0.76280
O3118       O  0.00699614  0.87689144  0.17537982    -0.59770
O3119       O  0.52098596  0.83926174  0.22711221    -0.52890
C3120       C  0.50608653  0.86287154  0.21462846     0.72880
Zr3121     Zr  0.51352243  0.85446346  0.10076080     2.54710
O3122       O  0.50448113  0.91094216  0.09356571    -0.80090
O3123       O  0.96480173  0.84516623  0.11743706    -0.93750
Zr3124     Zr  0.59435916  0.85121334  0.09418953     2.64680
O3125       O  0.59750522  0.90874972  0.09384017    -0.98700
O3126       O  0.64415476  0.84808502  0.08492599    -0.80760
O3127       O  0.55248332  0.85321069  0.05205103    -0.84120
O3128       O  0.55557317  0.85457379  0.14361196    -2.18830
O3129       O  0.99832418  0.75093487  0.18939788    -0.67510
O3130       O  0.52752024  0.77373003  0.24160000    -0.52080
C3131       C  0.50712341  0.75539859  0.23097202     0.71260
O3132       O  0.59077616  0.73562488  0.01456783    -0.60420
O3133       O  0.58093911  0.77364000  0.96207930    -0.52400
C3134       C  0.59395992  0.74850716  0.97429882     0.73060
O3135       O  0.61136762  0.74491839  0.16467281    -0.71820
O3136       O  0.59032023  0.77285543  0.22365885    -0.50490
C3137       C  0.60807129  0.75281686  0.20739264     0.74440
O3138       O  0.98830743  0.75001700  0.04060723    -0.67140
O3139       O  0.51689364  0.76592241  0.98123415    -0.54340
C3140       C  0.49578425  0.75158844  0.99814155     0.72830
Zr3141     Zr  0.51066574  0.76210461  0.10996411     2.77540
O3142       O  0.51338025  0.70452601  0.10866183    -0.97890
O3143       O  0.96083968  0.76016318  0.12087807    -0.78710
Zr3144     Zr  0.59063429  0.75801251  0.09273580     2.70070
O3145       O  0.59280969  0.70071729  0.10123909    -0.79960
O3146       O  0.63987581  0.76099514  0.07600809    -0.99050
Zr3147     Zr  0.54827711  0.80447624  0.00982545     2.21500
Zr3148     Zr  0.55590324  0.80728134  0.18979402     2.11130
O3149       O  0.55334200  0.75898807  0.14717814    -2.47730
O3150       O  0.54770563  0.75761695  0.05554343    -0.79750
O3151       O  0.51307935  0.80984192  0.15084904    -0.71950
O3152       O  0.59191266  0.80443872  0.04788760    -2.32910
O3153       O  0.50918190  0.80685664  0.06020929    -2.29120
O3154       O  0.59457856  0.80458758  0.13867332    -0.73710
H3155       H  0.55722867  0.87328994  0.16298813     0.78290
H3156       H  0.60708451  0.80369492  0.02582862     0.79370
H3157       H  0.55388911  0.74077334  0.16752446     0.81600
H3158       H  0.99211222  0.80730740  0.04311180     0.79210
H3159       H  0.64717539  0.83020421  0.06296595     0.42240
H3160       H  0.64708821  0.77622006  0.09939160     0.41210
H3161       H  0.57401322  0.69323435  0.09357856     0.40890
H3162       H  0.51963882  0.69913710  0.07653704     0.38820
H3163       H  0.95634054  0.77928488  0.13961850     0.41960
H3164       H  0.95799116  0.83170441  0.09155414     0.36740
H3165       H  0.51606335  0.91785574  0.06681838     0.42860
H3166       H  0.58822526  0.91531466  0.12326270     0.39270
H3167       H  0.99393008  0.69739091  0.10988942     0.44190
H3168       H  0.95582398  0.86595481  0.11284113     0.42910
H3169       H  0.61726215  0.91332360  0.09920454     0.43050
H3170       H  0.64721075  0.74023917  0.08603938     0.43410
O3171       O  0.86028330  0.00591354  0.03020595    -0.75460
O3172       O  0.89872085  0.52320989  0.05265527    -0.54370
C3173       C  0.88579632  0.50635476  0.02205017     0.78270
O3174       O  0.76526567  0.60761027  0.00630275    -0.60060
O3175       O  0.72920980  0.58166338  0.04043897    -0.53090
C3176       C  0.73955245  0.60197627  0.01063622     0.70280
O3177       O  0.85425663  0.60057882  0.00483661    -0.74620
O3178       O  0.88872331  0.58612195  0.05442219    -0.55190
C3179       C  0.87937406  0.59880847  0.01711022     0.76280
O3180       O  0.77485612  0.98347743  0.99527204    -0.59770
O3181       O  0.73877672  0.51034351  0.02967725    -0.52890
C3182       C  0.75006594  0.49221325  0.99704927     0.72880
Zr3183     Zr  0.81236098  0.50153425  0.03660329     2.54710
O3184       O  0.81572501  0.50545084  0.95171941    -0.80330
O3185       O  0.81981290  0.94433789  0.03640897    -0.93750
Zr3186     Zr  0.80938929  0.59331368  0.03616005     2.64680
O3187       O  0.81002522  0.59270258  0.95087119    -0.98700
O3188       O  0.81141800  0.65087115  0.04226763    -0.80760
O3189       O  0.83822574  0.54854637  0.03735179    -0.84120
O3190       O  0.78350990  0.54651001  0.03468129    -2.18830
O3191       O  0.76358401  0.98942440  0.20386164    -0.67510
O3192       O  0.72837779  0.51222107  0.16404107    -0.52080
C3193       C  0.73798819  0.49533658  0.19911629     0.71260
O3194       O  0.84967468  0.61061557  0.20364805    -0.60420
O3195       O  0.88577780  0.58559917  0.16730514    -0.52400
C3196       C  0.87542256  0.60460424  0.19855011     0.73060
O3197       O  0.76067281  0.60802779  0.19378114    -0.71820
O3198       O  0.72654149  0.58234366  0.15325958    -0.50490
C3199       C  0.73540229  0.60152607  0.18572816     0.74440
O3200       O  0.85068635  0.99279247  0.20003319    -0.67140
O3201       O  0.88735591  0.51591120  0.16280351    -0.54340
C3202       C  0.87614231  0.49861987  0.19453821     0.72830
Zr3203     Zr  0.80704874  0.50350778  0.16949569     2.77540
O3204       O  0.81155179  0.51266587  0.25327165    -0.97890
O3205       O  0.80718893  0.94592715  0.16986656    -0.78710
Zr3206     Zr  0.80643339  0.59545382  0.16880679     2.70070
O3207       O  0.80285620  0.59679417  0.25385153    -0.79960
O3208       O  0.80636038  0.65251834  0.15701062    -0.99050
Zr3209     Zr  0.86548687  0.55037434  0.10707069     2.21500
Zr3210     Zr  0.75169652  0.54548828  0.09897407     2.11130
O3211       O  0.77947904  0.54874907  0.16756620    -2.47730
O3212       O  0.83426268  0.54997965  0.17189495    -0.79750
O3213       O  0.78069798  0.49943245  0.10064339    -0.71950
O3214       O  0.83676213  0.59681357  0.10408803    -2.32910
O3215       O  0.83837748  0.50180983  0.10586202    -2.29120
O3216       O  0.77901538  0.59342269  0.10077153    -0.73710
H3217       H  0.77408629  0.54696641  0.00509949     0.78290
H3218       H  0.84761195  0.61603990  0.10425293     0.79370
H3219       H  0.76809021  0.54891132  0.19538005     0.81600
H3220       H  0.84971666  0.98307311  0.10811799     0.79210
H3221       H  0.83126509  0.65620668  0.03992653     0.42240
H3222       H  0.78814549  0.65715567  0.14322897     0.41210
H3223       H  0.81507503  0.57955995  0.26458011     0.40890
H3224       H  0.79413058  0.52279167  0.26351382     0.38820
H3225       H  0.80093368  0.93981303  0.13817262     0.41960
H3226       H  0.83974957  0.94182969  0.04255845     0.36740
H3227       H  0.82798403  0.52384967  0.94602888     0.42860
H3228       H  0.79733287  0.57542302  0.94160634     0.39270
H3229       H  0.81154258  0.99129136  0.26769821     0.44190
H3230       H  0.81769176  0.93793225  0.00324471     0.42910
H3231       H  0.80058542  0.61238212  0.94131104     0.43050
H3232       H  0.80530471  0.66143972  0.18906636     0.43410
C3233       C  0.80246540  0.80496005  0.09547342    -0.02660
C3234       C  0.54810097  0.79968534  0.60709796    -0.02660
O3235       O  0.62261283  0.73835510  0.43327304    -0.75460
O3236       O  0.64606773  0.70983510  0.48745249    -0.54370
C3237       C  0.62762823  0.73073812  0.47591501     0.78270
O3238       O  0.61998477  0.61820637  0.26733509    -0.60060
O3239       O  0.64186278  0.64504164  0.20941871    -0.53090
C3240       C  0.62386435  0.62456948  0.22388821     0.70280
O3241       O  0.61792653  0.61508039  0.41906530    -0.74620
O3242       O  0.64269283  0.64041875  0.47606312    -0.55190
C3243       C  0.62325300  0.62174278  0.46160843     0.76280
O3244       O  0.62134198  0.74335178  0.28287855    -0.59770
O3245       O  0.64272836  0.71599492  0.22345939    -0.52890
C3246       C  0.62546245  0.73658470  0.23992857     0.72880
Zr3247     Zr  0.63790475  0.72376785  0.35458883     2.54710
O3248       O  0.58780306  0.71976482  0.35704344    -0.80330
O3249       O  0.64065346  0.78134430  0.35875052    -0.93750
Zr3250     Zr  0.63551378  0.63137516  0.34532712     2.64680
O3251       O  0.58529948  0.63411351  0.34693912    -0.98700
O3252       O  0.63612014  0.57408748  0.33682158    -0.80760
O3253       O  0.63661027  0.67609806  0.39606213    -0.84120
O3254       O  0.63522003  0.67903233  0.30355368    -2.18830
O3255       O  0.73394698  0.73571834  0.26541449    -0.67510
O3256       O  0.70777350  0.71182479  0.20944715    -0.52080
C3257       C  0.72780080  0.73028289  0.22231233     0.71260
O3258       O  0.73309080  0.61298295  0.42619374    -0.60420
O3259       O  0.70926470  0.63983421  0.48332367    -0.52400
C3260       C  0.72799441  0.61984884  0.46995585     0.73060
O3261       O  0.72373671  0.61099406  0.26360802    -0.71820
O3262       O  0.70021677  0.63832173  0.20744198    -0.50490
C3263       C  0.71728247  0.61683703  0.22057351     0.74440
O3264       O  0.73732193  0.73460730  0.41810704    -0.67140
O3265       O  0.71279563  0.70943066  0.47590303    -0.54340
C3266       C  0.73213646  0.72815632  0.46093762     0.72830
Zr3267     Zr  0.71843339  0.72052539  0.34389427     2.77540
O3268       O  0.76857477  0.71711811  0.34344806    -0.97890
O3269       O  0.71611143  0.77816186  0.34452689    -0.78710
Zr3270     Zr  0.71620340  0.62729745  0.34572745     2.70070
O3271       O  0.76618746  0.62946685  0.33784579    -0.79960
O3272       O  0.71509984  0.56964518  0.34904706    -0.99050
Zr3273     Zr  0.67774628  0.67495893  0.44047224     2.21500
Zr3274     Zr  0.67520371  0.67746767  0.25412640     2.11130
O3275       O  0.71703419  0.67385783  0.29825197    -2.47730
O3276       O  0.71767128  0.67413552  0.39086644    -0.79750
O3277       O  0.67673313  0.72383975  0.30248702    -0.71950
O3278       O  0.67575279  0.62798404  0.39255377    -2.32910
O3279       O  0.67960766  0.72266859  0.39586420    -2.29120
O3280       O  0.67567946  0.62973969  0.29924830    -0.73710
H3281       H  0.61851768  0.67998590  0.28543910     0.78290
H3282       H  0.67507250  0.60915124  0.41165293     0.79370
H3283       H  0.73284031  0.67310380  0.27750921     0.81600
H3284       H  0.68074491  0.74102668  0.41608386     0.79210
H3285       H  0.65266924  0.56956002  0.31745643     0.42240
H3286       H  0.70552464  0.56292088  0.32016827     0.41210
H3287       H  0.77206860  0.64504137  0.36181603     0.40890
H3288       H  0.77313234  0.70190350  0.31809194     0.38820
H3289       H  0.70019247  0.78331676  0.32446403     0.41960
H3290       H  0.65161653  0.78588984  0.38708990     0.36740
H3291       H  0.58390792  0.70174786  0.37819000     0.42860
H3292       H  0.58027838  0.64778674  0.32026661     0.39270
H3293       H  0.77497994  0.73791724  0.33165428     0.44190
H3294       H  0.62172845  0.78824156  0.36704876     0.42910
H3295       H  0.57909702  0.61263339  0.33762895     0.43050
H3296       H  0.73450426  0.56315116  0.34396386     0.43410
O3297       O  0.85992334  0.73447617  0.67530925    -0.75460
O3298       O  0.83761432  0.76162711  0.73384580    -0.54370
C3299       C  0.85549118  0.74163875  0.71803815     0.78270
O3300       O  0.86158840  0.86112437  0.53976755    -0.60060
O3301       O  0.83654944  0.83653045  0.48227581    -0.53090
C3302       C  0.85578404  0.85537330  0.49731967     0.70280
O3303       O  0.85817389  0.86020387  0.69047343    -0.74620
O3304       O  0.83717553  0.83110384  0.74668668    -0.55190
C3305       C  0.85418816  0.85311857  0.73384007     0.76280
O3306       O  0.85918000  0.73791610  0.52424238    -0.59770
O3307       O  0.83465289  0.76469628  0.46928290    -0.52890
C3308       C  0.85413418  0.74519032  0.48145038     0.72880
Zr3309     Zr  0.84205843  0.75093828  0.60258535     2.54710
O3310       O  0.89227574  0.75138920  0.60005065    -0.80330
O3311       O  0.83766741  0.69356273  0.59890821    -0.93750
Zr3312     Zr  0.84460817  0.84329443  0.61207228     2.64680
O3313       O  0.89438009  0.83598424  0.61605388    -0.98700
O3314       O  0.84592637  0.90094731  0.61245712    -0.80760
O3315       O  0.84477381  0.79568209  0.65368332    -0.84120
O3316       O  0.84334087  0.79855813  0.56108682    -2.18830
O3317       O  0.74425983  0.73774431  0.53805730    -0.67510
O3318       O  0.76850999  0.76334705  0.48024667    -0.52080
C3319       C  0.74958885  0.74403479  0.49520215     0.71260
O3320       O  0.75548828  0.86286406  0.69019794    -0.60420
O3321       O  0.78005836  0.83731001  0.74695185    -0.52400
C3322       C  0.76262148  0.85800262  0.73308005     0.73060
O3323       O  0.74606194  0.86164241  0.52868450    -0.71820
O3324       O  0.77047169  0.83540622  0.47184252    -0.50490
C3325       C  0.75139094  0.85535078  0.48481605     0.74440
O3326       O  0.74660229  0.73730291  0.69135575    -0.67140
O3327       O  0.77194338  0.76364204  0.74624118    -0.54340
C3328       C  0.75283576  0.74370229  0.73417378     0.72830
Zr3329     Zr  0.76147172  0.75387895  0.61271331     2.77540
O3330       O  0.71142983  0.75816998  0.61735376    -0.97890
O3331       O  0.76329128  0.69628591  0.61321011    -0.78710
Zr3332     Zr  0.76359592  0.84705399  0.60873317     2.70070
O3333       O  0.71355256  0.84556174  0.61569197    -0.79960
O3334       O  0.76564611  0.90459851  0.60655292    -0.99050
Zr3335     Zr  0.80444273  0.79794010  0.70147276     2.21500
Zr3336     Zr  0.80231694  0.79963059  0.51543154     2.11130
O3337       O  0.76203046  0.79996707  0.56457907    -2.47730
O3338       O  0.76266565  0.80097973  0.65735505    -0.79750
O3339       O  0.80043620  0.75205891  0.56075931    -0.71950
O3340       O  0.80403366  0.84537731  0.65585058    -2.32910
O3341       O  0.80307921  0.75103552  0.65423971    -2.29120
O3342       O  0.80457659  0.84622398  0.56362978    -0.73710
H3343       H  0.85963673  0.79848159  0.54148297     0.78290
H3344       H  0.80530479  0.86410457  0.67524045     0.79370
H3345       H  0.74554310  0.80032724  0.54585998     0.81600
H3346       H  0.80304012  0.73224926  0.67344605     0.79210
H3347       H  0.82822363  0.90736496  0.62708457     0.42240
H3348       H  0.77543341  0.90938968  0.57687681     0.41210
H3349       H  0.70979049  0.82958994  0.64022282     0.40890
H3350       H  0.70620816  0.77139082  0.59029403     0.38820
H3351       H  0.77209987  0.69069376  0.58294838     0.41960
H3352       H  0.82944750  0.68751002  0.62941514     0.36740
H3353       H  0.89775628  0.76818120  0.62245641     0.42860
H3354       H  0.89960542  0.82568243  0.58608081     0.39270
H3355       H  0.70455750  0.73669282  0.60952048     0.44190
H3356       H  0.85685347  0.68565240  0.60023033     0.42910
H3357       H  0.90212232  0.85766113  0.61382314     0.43050
H3358       H  0.74638656  0.91127991  0.60105936     0.43410
C3359       C  0.80237213  0.55207302  0.60637431    -0.02660
C3360       C  0.54912258  0.54660021  0.09964766    -0.02660
C3361       C  0.59124350  0.58600070  0.11404967    -0.26490
C3362       C  0.57041380  0.56570499  0.13297521    -0.14560
C3363       C  0.57120858  0.56347516  0.18326676     0.36070
C3364       C  0.58663104  0.58492225  0.21004554    -0.25940
C3365       C  0.60592903  0.60592027  0.19052536    -0.15180
C3366       C  0.60893780  0.60541020  0.14148816     0.37150
N3367       N  0.63051092  0.62350978  0.11942569    -0.89430
H3368       H  0.59658329  0.58437661  0.07805881     0.18270
H3369       H  0.58474634  0.58288854  0.24771908     0.18260
N3370       N  0.55926317  0.53765401  0.20877125    -0.88460
H3371       H  0.62964025  0.62125829  0.08300728     0.35640
H3372       H  0.64932401  0.61370471  0.12953625     0.40730
H3373       H  0.54629929  0.54688948  0.23490004     0.40350
H3374       H  0.57506416  0.52518841  0.22521477     0.35240
C3375       C  0.75540278  0.55964897  0.56113343    -0.26490
C3376       C  0.78063879  0.57343775  0.57702724    -0.14560
C3377       C  0.78408231  0.60598060  0.56368245     0.36070
C3378       C  0.76723747  0.61982622  0.52835639    -0.25940
C3379       C  0.74492932  0.60375938  0.50784899    -0.15180
C3380       C  0.73837318  0.57356157  0.52646700     0.37150
N3381       N  0.71479213  0.55584577  0.51080892    -0.89430
H3382       H  0.74996825  0.53592961  0.57220064     0.18270
H3383       H  0.77117892  0.64399448  0.51748274     0.18260
N3384       N  0.80296019  0.62617307  0.58794044    -0.88460
H3385       H  0.72204642  0.53527173  0.49435446     0.35640
H3386       H  0.70353818  0.56822678  0.48586047     0.40730
H3387       H  0.79506541  0.62972936  0.62170935     0.40350
H3388       H  0.80417959  0.64840747  0.57218260     0.35240
C3389       C  0.57852968  0.74916560  0.58039537    -0.26490
C3390       C  0.57102955  0.78172284  0.57437350    -0.14560
C3391       C  0.58268970  0.79559411  0.53228530     0.36070
C3392       C  0.60216414  0.77920152  0.50405750    -0.25940
C3393       C  0.61022476  0.74790448  0.51257047    -0.15180
C3394       C  0.59756615  0.73278539  0.55097427     0.37150
N3395       N  0.60216209  0.69985337  0.55922714    -0.89430
H3396       H  0.56887551  0.73447669  0.60609755     0.18270
H3397       H  0.61027066  0.79105672  0.47328823     0.18260
N3398       N  0.57375995  0.82577599  0.51504184    -0.88460
H3399       H  0.62311579  0.69641998  0.56570765     0.35640
H3400       H  0.59673661  0.68708182  0.52921134     0.40730
H3401       H  0.56424872  0.82200027  0.48275433     0.40350
H3402       H  0.59106548  0.83992054  0.50838911     0.35240
C3403       C  0.79104172  0.76712784  0.16241078    -0.26490
C3404       C  0.78021452  0.78506411  0.12481604    -0.14560
C3405       C  0.75108164  0.78051462  0.11634285     0.36070
C3406       C  0.73484150  0.76146990  0.14687537    -0.25940
C3407       C  0.74590674  0.74648519  0.18628028    -0.15180
C3408       C  0.77463021  0.74884188  0.19304219     0.37150
N3409       N  0.78727784  0.73249514  0.23135678    -0.89430
H3410       H  0.81298441  0.76813474  0.16896251     0.18270
H3411       H  0.71292496  0.75927752  0.14043923     0.18260
N3412       N  0.73661801  0.79344099  0.07726079    -0.88460
H3413       H  0.80855160  0.73650565  0.23184164     0.35640
H3414       H  0.78449779  0.70820142  0.22584159     0.40730
H3415       H  0.74744939  0.79106626  0.04592941     0.40350
H3416       H  0.73104733  0.81680712  0.08383256     0.35240
C3417       C  0.91588781  0.62401831  0.30845280    -0.26490
C3418       C  0.91631685  0.65761738  0.30815688    -0.14560
C3419       C  0.90465939  0.67285282  0.26811356     0.36070
C3420       C  0.89327710  0.65458778  0.23164390    -0.25940
C3421       C  0.89347087  0.62141866  0.23232103    -0.15180
C3422       C  0.90537576  0.60599396  0.27100168     0.37150
N3423       N  0.90640298  0.57205903  0.27447396    -0.89430
H3424       H  0.92390941  0.61100914  0.33783893     0.18270
H3425       H  0.88358611  0.66644727  0.20249015     0.18260
N3426       N  0.90517123  0.70686584  0.26364251    -0.88460
H3427       H  0.92715241  0.56549414  0.27580272     0.35640
H3428       H  0.89820861  0.56088618  0.24507972     0.40730
H3429       H  0.89271051  0.71685245  0.28963867     0.40350
H3430       H  0.89692918  0.71394809  0.23164561     0.35240
C3431       C  0.96569646  0.68845632  0.27933190    -0.26490
C3432       C  0.95245621  0.70037354  0.32029922    -0.14560
C3433       C  0.95783986  0.73325143  0.32962241     0.36070
C3434       C  0.97835026  0.74996408  0.30389514    -0.25940
C3435       C  0.99242520  0.73603607  0.26643178    -0.15180
C3436       C  0.98625311  0.70457126  0.25476480     0.37150
N3437       N  0.50016070  0.68937420  0.21601348    -0.89430
H3438       H  0.95980454  0.66585693  0.26475765     0.18270
H3439       H  0.98194795  0.77471232  0.31061125     0.18260
N3440       N  0.94100304  0.75126810  0.36083813    -0.88460
H3441       H  0.49312567  0.66615622  0.21122760     0.35640
H3442       H  0.52104542  0.68775596  0.22446981     0.40730
H3443       H  0.93079213  0.76866941  0.34174251     0.40350
H3444       H  0.95364788  0.76199231  0.38580402     0.35240
C3445       C  0.93933551  0.64436677  0.42364238    -0.26490
C3446       C  0.94973442  0.65384766  0.37933340    -0.14560
C3447       C  0.97610044  0.63992702  0.36691311     0.36070
C3448       C  0.49264900  0.62530697  0.40113231    -0.25940
C3449       C  0.98309694  0.62021788  0.44643528    -0.15180
C3450       C  0.95550438  0.62847541  0.45681012     0.37150
N3451       N  0.94338115  0.62024291  0.50098617    -0.89430
H3452       H  0.91817825  0.64917134  0.43343574     0.18270
H3453       H  0.51303989  0.61681858  0.39175513     0.18260
N3454       N  0.48532792  0.63690183  0.31948282    -0.88460
H3455       H  0.92618532  0.60590086  0.49470876     0.35640
H3456       H  0.93655399  0.64108410  0.51724093     0.40730
H3457       H  0.97325278  0.61938211  0.30369414     0.40350
H3458       H  0.50572850  0.62902138  0.31719420     0.35240
C3459       C  0.91909745  0.71095705  0.42141677    -0.26490
C3460       C  0.90946860  0.69546147  0.38037227    -0.14560
C3461       C  0.87977627  0.69513214  0.37601212     0.36070
C3462       C  0.86256287  0.71329934  0.40662108    -0.25940
C3463       C  0.87302685  0.72987368  0.44523210    -0.15180
C3464       C  0.90174922  0.72790257  0.45273004     0.37150
N3465       N  0.91372350  0.74342784  0.49238315    -0.89430
H3466       H  0.94094323  0.71032363  0.42906692     0.18270
H3467       H  0.84042911  0.71263936  0.40176441     0.18260
N3468       N  0.86611829  0.67493239  0.34315487    -0.88460
H3469       H  0.92852405  0.75950392  0.48018940     0.35640
H3470       H  0.92380159  0.72632352  0.51232707     0.40730
H3471       H  0.85329050  0.68886344  0.32240535     0.40350
H3472       H  0.85363872  0.65908767  0.36177490     0.35240
C3473       C  0.66795618  0.88614369  0.29038089    -0.26490
C3474       C  0.65506996  0.90739077  0.32217542    -0.14560
C3475       C  0.62583369  0.91226348  0.31635393     0.36070
C3476       C  0.61126149  0.89468254  0.28296615    -0.25940
C3477       C  0.62462257  0.87470012  0.25128449    -0.15180
C3478       C  0.65329410  0.87045213  0.25463661     0.37150
N3479       N  0.66741280  0.84989445  0.22219573    -0.89430
H3480       H  0.69007378  0.88293161  0.29202915     0.18270
H3481       H  0.58928308  0.89864795  0.27939575     0.18260
N3482       N  0.61098902  0.93759834  0.33885252    -0.88460
H3483       H  0.68831666  0.84832609  0.23054083     0.35640
H3484       H  0.66653798  0.86036628  0.18915835     0.40730
H3485       H  0.60307850  0.95264790  0.31330076     0.40350
H3486       H  0.59385354  0.92797549  0.35607859     0.35240
C3487       C  0.69177043  0.97865911  0.23738274    -0.26490
C3488       C  0.72030559  0.98286041  0.24038122    -0.14560
C3489       C  0.73210431  0.97548273  0.28508367     0.36070
C3490       C  0.71561767  0.96408154  0.32271614    -0.25940
C3491       C  0.68895165  0.95213260  0.31619611    -0.15180
C3492       C  0.67614372  0.96425576  0.27422331     0.37150
N3493       N  0.64694054  0.96456578  0.26942052    -0.89430
H3494       H  0.68142291  0.48611046  0.20579819     0.18270
H3495       H  0.72454236  0.96288673  0.35719912     0.18260
N3496       N  0.76119668  0.97841337  0.29266071    -0.88460
H3497       H  0.64030320  0.47520781  0.23973031     0.35640
H3498       H  0.64054029  0.98812733  0.26645020     0.40730
H3499       H  0.77046370  0.95887039  0.27633111     0.40350
H3500       H  0.76593584  0.97629732  0.32815304     0.35240
C3501       C  0.62087549  0.95105473  0.45325792    -0.26490
C3502       C  0.62321339  0.98371777  0.45623958    -0.14560
C3503       C  0.64447996  0.49860352  0.43012588     0.36070
C3504       C  0.66093222  0.98041958  0.39841591    -0.25940
C3505       C  0.65767576  0.94707431  0.39261201    -0.15180
C3506       C  0.63743356  0.93277219  0.42317977     0.37150
N3507       N  0.63099172  0.89985865  0.42161993    -0.89430
H3508       H  0.60529145  0.93919965  0.47432341     0.18270
H3509       H  0.67657945  0.49308140  0.37894756     0.18260
N3510       N  0.65121258  0.53148186  0.43673404    -0.88460
H3511       H  0.61014680  0.89680654  0.41376685     0.35640
H3512       H  0.63382691  0.89076543  0.45526038     0.40730
H3513       H  0.63819289  0.54226101  0.46128591     0.40350
H3514       H  0.64806933  0.54292004  0.40502546     0.35240
C3515       C  0.72562652  0.90406894  0.37606673    -0.26490
C3516       C  0.69625578  0.90409344  0.38112667    -0.14560
C3517       C  0.68732775  0.87889516  0.41122288     0.36070
C3518       C  0.70481629  0.86660830  0.44702965    -0.25940
C3519       C  0.73353233  0.87157436  0.44715678    -0.15180
C3520       C  0.74398338  0.88875945  0.40791765     0.37150
N3521       N  0.77304177  0.89155496  0.39868975    -0.89430
H3522       H  0.73525509  0.91394436  0.34545782     0.18270
H3523       H  0.69641895  0.84941646  0.47134701     0.18260
N3524       N  0.66575114  0.85834968  0.39510379    -0.88460
H3525       H  0.77722617  0.87926005  0.36759250     0.35640
H3526       H  0.78481821  0.88117712  0.42482070     0.40730
H3527       H  0.65845061  0.84430885  0.42264813     0.40350
H3528       H  0.67442761  0.84288669  0.37041140     0.35240
C3529       C  0.61201931  0.62754924  0.81274045    -0.26490
C3530       C  0.62268456  0.61623150  0.77026752    -0.14560
C3531       C  0.65117082  0.62031984  0.76132367     0.36070
C3532       C  0.66689773  0.63976458  0.79077645    -0.25940
C3533       C  0.65684761  0.65222952  0.83368215    -0.15180
C3534       C  0.62862519  0.64416024  0.84503731     0.37150
N3535       N  0.61659464  0.65150272  0.88982169    -0.89430
H3536       H  0.59046291  0.62357398  0.82113967     0.18270
H3537       H  0.68743925  0.64433388  0.77873046     0.18260
N3538       N  0.66499238  0.60495605  0.72259963    -0.88460
H3539       H  0.59897468  0.66520479  0.88432475     0.35640
H3540       H  0.60998401  0.63040033  0.90533270     0.40730
H3541       H  0.65386124  0.58503103  0.71191642     0.40350
H3542       H  0.68324485  0.59514119  0.73528246     0.35240
C3543       C  0.63618205  0.71428077  0.87091079    -0.26490
C3544       C  0.65734905  0.69728606  0.89490304    -0.14560
C3545       C  0.65692857  0.70072299  0.94506757     0.36070
C3546       C  0.63701128  0.71912104  0.96729313    -0.25940
C3547       C  0.61544472  0.73357367  0.94374593    -0.15180
C3548       C  0.61530777  0.73195041  0.89456251     0.37150
N3549       N  0.59330827  0.74637185  0.86893245    -0.89430
H3550       H  0.63485381  0.71197862  0.83321772     0.18270
H3551       H  0.63801741  0.72080775  0.00507087     0.18260
N3552       N  0.67550440  0.68509732  0.97587156    -0.88460
H3553       H  0.59546907  0.74162242  0.83314834     0.35640
H3554       H  0.59522724  0.77091780  0.87285199     0.40730
H3555       H  0.66420370  0.67055906  0.99858965     0.40350
H3556       H  0.68590320  0.70216966  0.99574242     0.35240
C3557       C  0.71697767  0.66496107  0.92219385    -0.26490
C3558       C  0.69291995  0.65194670  0.90188915    -0.14560
C3559       C  0.68446052  0.62159678  0.91933968     0.36070
C3560       C  0.69904981  0.60653836  0.95588584    -0.25940
C3561       C  0.72227001  0.62029655  0.97641384    -0.15180
C3562       C  0.73107295  0.65029130  0.95881794     0.37150
N3563       N  0.75342625  0.66782503  0.97897952    -0.89430
H3564       H  0.72390281  0.68835984  0.91198438     0.18270
H3565       H  0.69230951  0.58357032  0.96803576     0.18260
N3566       N  0.66133967  0.60527330  0.90032439    -0.88460
H3567       H  0.77214963  0.65708981  0.97032822     0.35640
H3568       H  0.75079869  0.66882992  0.01531153     0.40730
H3569       H  0.64837040  0.59820745  0.92777710     0.40350
H3570       H  0.66847553  0.58521866  0.88262501     0.35240
C3571       C  0.69382164  0.72404617  0.82007627    -0.26490
C3572       C  0.69844002  0.69195683  0.83316151    -0.14560
C3573       C  0.72392001  0.67858392  0.81446217     0.36070
C3574       C  0.74173787  0.69666617  0.78531191    -0.25940
C3575       C  0.73563562  0.72762483  0.77144413    -0.15180
C3576       C  0.71095339  0.74100587  0.78867033     0.37150
N3577       N  0.70184740  0.77166895  0.77387268    -0.89430
H3578       H  0.67648592  0.73715270  0.83305141     0.18270
H3579       H  0.76023072  0.68558537  0.77140811     0.18260
N3580       N  0.73258786  0.64635610  0.82170090    -0.88460
H3581       H  0.68428200  0.76809669  0.75350452     0.35640
H3582       H  0.71628059  0.78313183  0.75260755     0.40730
H3583       H  0.71720623  0.63134563  0.83401803     0.40350
H3584       H  0.74903466  0.64642674  0.84513849     0.35240
C3585       C  0.59765066  0.85864538  0.67626412    -0.26490
C3586       C  0.58711364  0.85868186  0.72216344    -0.14560
C3587       C  0.56238370  0.84166321  0.73011514     0.36070
C3588       C  0.54981851  0.82505735  0.69249350    -0.25940
C3589       C  0.56197889  0.82187751  0.64666797    -0.15180
C3590       C  0.58590503  0.84094003  0.63949320     0.37150
N3591       N  0.59897019  0.84319917  0.59497605    -0.89430
H3592       H  0.61617725  0.87218015  0.66867825     0.18270
H3593       H  0.53023200  0.81410736  0.70057535     0.18260
N3594       N  0.54963769  0.83963210  0.77562519    -0.88460
H3595       H  0.61940648  0.83568989  0.59814680     0.35640
H3596       H  0.59911858  0.86703638  0.58502549     0.40730
H3597       H  0.56083623  0.85186130  0.80090275     0.40350
H3598       H  0.54981247  0.81580767  0.78556306     0.35240
C3599       C  0.56145408  0.99444196  0.98727412    -0.26490
C3600       C  0.59020344  0.99332557  0.98498677    -0.14560
C3601       C  0.60516013  0.50580445  0.02365592     0.36070
C3602       C  0.59166761  0.52071204  0.06103166    -0.25940
C3603       C  0.56315723  0.52538366  0.06127008    -0.15180
C3604       C  0.54785230  0.00994506  0.02488907     0.37150
N3605       N  0.51838411  0.00981382  0.02582521    -0.89430
H3606       H  0.54944379  0.98415081  0.95920700     0.18270
H3607       H  0.60412535  0.52856243  0.09003315     0.18260
N3608       N  0.63451707  0.50357491  0.02571605    -0.88460
H3609       H  0.51168084  0.98624773  0.02602896     0.35640
H3610       H  0.51152721  0.52039338  0.99500248     0.40730
H3611       H  0.63962445  0.49174585  0.05656118     0.40350
H3612       H  0.64261014  0.52653132  0.02775043     0.35240
C3613       C  0.76042029  0.87039532  0.03010186    -0.26490
C3614       C  0.76655213  0.86503598  0.98250366    -0.14560
C3615       C  0.78688396  0.84239945  0.97140895     0.36070
C3616       C  0.79890905  0.82417856  0.00763309    -0.25940
C3617       C  0.79046465  0.82679253  0.05550477    -0.15180
C3618       C  0.77255433  0.85250524  0.06617905     0.37150
N3619       N  0.76630161  0.86058662  0.11386738    -0.89430
H3620       H  0.74533056  0.88829667  0.03947530     0.18270
H3621       H  0.81509232  0.80802923  0.99750844     0.18260
N3622       N  0.79487394  0.83740747  0.92339079    -0.88460
H3623       H  0.74493270  0.86101065  0.11863941     0.35640
H3624       H  0.77349064  0.88360862  0.11987503     0.40730
H3625       H  0.77777630  0.82839665  0.90563744     0.40350
H3626       H  0.81027099  0.82015701  0.92088399     0.35240
C3627       C  0.78064047  0.98180728  0.69125019    -0.26490
C3628       C  0.76256844  0.99773617  0.72181242    -0.14560
C3629       C  0.75421024  0.52859588  0.70896026     0.36070
C3630       C  0.76392907  0.54283405  0.66746518    -0.25940
C3631       C  0.78492681  0.52890898  0.63936796    -0.15180
C3632       C  0.79173824  0.99668693  0.65057205     0.37150
N3633       N  0.80876174  0.97796679  0.62026408    -0.89430
H3634       H  0.78543090  0.95716142  0.69788927     0.18270
H3635       H  0.75776694  0.56707254  0.66097904     0.18260
N3636       N  0.73602590  0.54617892  0.73908162    -0.88460
H3637       H  0.79725150  0.95852754  0.60879435     0.35640
H3638       H  0.82537214  0.96949432  0.63965692     0.40730
H3639       H  0.71858705  0.55226918  0.71984227     0.40350
H3640       H  0.74602262  0.56711963  0.74896196     0.35240
C3641       C  0.81920877  0.57040433  0.69025933    -0.26490
C3642       C  0.82211138  0.57264391  0.64054663    -0.14560
C3643       C  0.84589316  0.59087930  0.62560093     0.36070
C3644       C  0.86347908  0.60554540  0.65897418    -0.25940
C3645       C  0.85848237  0.60398623  0.70760034    -0.15180
C3646       C  0.83501754  0.58728593  0.72263257     0.37150
N3647       N  0.82690379  0.58729355  0.77128539    -0.89430
H3648       H  0.80519223  0.55459498  0.70688121     0.18270
H3649       H  0.88129549  0.61855783  0.64634189     0.18260
N3650       N  0.85344089  0.59520525  0.57720184    -0.88460
H3651       H  0.80953048  0.57313201  0.77723134     0.35640
H3652       H  0.82094435  0.61042602  0.77987651     0.40730
H3653       H  0.83882274  0.58630780  0.55415316     0.40350
H3654       H  0.87198519  0.58326217  0.57095967     0.35240
C3655       C  0.52482111  0.61313657  0.01373676    -0.26490
C3656       C  0.99635343  0.61240997  0.01969572    -0.14560
C3657       C  0.98427243  0.58970518  0.04848654     0.36070
C3658       C  0.00128064  0.56855646  0.07195521    -0.25940
C3659       C  0.53073005  0.57048025  0.07080676    -0.15180
C3660       C  0.54179293  0.59125960  0.03599958     0.37150
N3661       N  0.56848672  0.58647624  0.01570083    -0.89430
H3662       H  0.53370931  0.62841912  0.98713145     0.18270
H3663       H  0.99064478  0.54862720  0.08695671     0.18260
N3664       N  0.95474495  0.58618111  0.05010065    -0.88460
H3665       H  0.57869292  0.60834847  0.01474073     0.35640
H3666       H  0.56597611  0.57896031  0.98105407     0.40730
H3667       H  0.94665182  0.60661315  0.06576910     0.40350
H3668       H  0.94895957  0.56725896  0.07156733     0.35240
C3669       C  0.83117343  0.73719887  0.01669030    -0.26490
C3670       C  0.85946757  0.73890058  0.02521788    -0.14560
C3671       C  0.86877538  0.75597145  0.06431857     0.36070
C3672       C  0.84981871  0.77475281  0.08972512    -0.25940
C3673       C  0.82207549  0.77856489  0.07485476    -0.15180
C3674       C  0.81246314  0.75608979  0.04152250     0.37150
N3675       N  0.78387160  0.75340900  0.03058960    -0.89430
H3676       H  0.82358264  0.72226824  0.98857784     0.18270
H3677       H  0.85734765  0.78697480  0.12031864     0.18260
N3678       N  0.89748675  0.75575538  0.07640164    -0.88460
H3679       H  0.77764560  0.73011236  0.03726098     0.35640
H3680       H  0.78142246  0.75763956  0.99481890     0.40730
H3681       H  0.90232721  0.73284599  0.08740602     0.40350
H3682       H  0.90111750  0.77076445  0.10492436     0.35240
C3683       C  0.54003682  0.75524082  0.66797463    -0.26490
C3684       C  0.52818029  0.77594005  0.63480587    -0.14560
C3685       C  0.99835245  0.77782995  0.63668352     0.36070
C3686       C  0.98281494  0.75657568  0.66384119    -0.25940
C3687       C  0.99520920  0.73581179  0.69474122    -0.15180
C3688       C  0.52435611  0.73483629  0.69646516     0.37150
N3689       N  0.53885774  0.71411290  0.72765955    -0.89430
H3690       H  0.56208170  0.75601477  0.67372292     0.18270
H3691       H  0.96055400  0.75909231  0.66482347     0.18260
N3692       N  0.98315693  0.80344170  0.61668950    -0.88460
H3693       H  0.55167734  0.69967960  0.70714271     0.35640
H3694       H  0.52539165  0.69859820  0.74471388     0.40730
H3695       H  0.97321743  0.81592123  0.64363996     0.40350
H3696       H  0.96807967  0.79398554  0.59464128     0.35240
C3697       C  0.81104910  0.83454453  0.17474108    -0.26490
C3698       C  0.81942946  0.82832550  0.12821623    -0.14560
C3699       C  0.84360771  0.84473315  0.11256927     0.36070
C3700       C  0.86092969  0.86072194  0.14488672    -0.25940
C3701       C  0.85393351  0.86309963  0.19264732    -0.15180
C3702       C  0.82742848  0.85184875  0.20636796     0.37150
N3703       N  0.81671970  0.85847147  0.25243091    -0.89430
H3704       H  0.79112892  0.82648156  0.18695959     0.18270
H3705       H  0.88021258  0.87073876  0.13251543     0.18260
N3706       N  0.85147732  0.84392410  0.06414991    -0.88460
H3707       H  0.79741732  0.84792283  0.25756629     0.35640
H3708       H  0.81359934  0.88294835  0.25461394     0.40730
H3709       H  0.85229919  0.86726798  0.05210172     0.40350
H3710       H  0.87134035  0.83445670  0.06149120     0.35240
C3711       C  0.01472580  0.97564891  0.16687892    -0.26490
C3712       C  0.99480689  0.99166497  0.19325211    -0.14560
C3713       C  0.99259629  0.52466308  0.19038912     0.36070
C3714       C  0.01086765  0.54126307  0.16152185    -0.25940
C3715       C  0.53020979  0.52562750  0.13173055    -0.15180
C3716       C  0.53296335  0.99216037  0.13740128     0.37150
N3717       N  0.55583105  0.97510525  0.11797184    -0.89430
H3718       H  0.01741240  0.95036607  0.17166004     0.18270
H3719       H  0.01010966  0.56693078  0.16198626     0.18260
N3720       N  0.97214397  0.54122443  0.21777370    -0.88460
H3721       H  0.54824209  0.95651102  0.09751120     0.35640
H3722       H  0.56707751  0.96547492  0.14553374     0.40730
H3723       H  0.95276757  0.53390381  0.20603282     0.40350
H3724       H  0.97331171  0.56563642  0.21190049     0.35240
C3725       C  0.99747527  0.82114318  0.50689015    -0.26490
C3726       C  0.99164317  0.85322624  0.51531916    -0.14560
C3727       C  0.00556620  0.86876982  0.55189393     0.36070
C3728       C  0.52398762  0.85172675  0.58056217    -0.25940
C3729       C  0.52951403  0.81913055  0.57317852    -0.15180
C3730       C  0.01601444  0.80399374  0.53462809     0.37150
N3731       N  0.02115420  0.77119327  0.52347249    -0.89430
H3732       H  0.98745964  0.80921771  0.47793223     0.18270
H3733       H  0.53373990  0.86431620  0.60896721     0.18260
N3734       N  0.00193279  0.90216981  0.55882429    -0.88460
H3735       H  0.01148402  0.76467873  0.49228630     0.35640
H3736       H  0.51224119  0.75719559  0.54951534     0.40730
H3737       H  0.00839365  0.91357931  0.52822560     0.40350
H3738       H  0.51551999  0.90983436  0.58460434     0.35240
C3739       C  0.83431117  0.00737752  0.49601136    -0.26490
C3740       C  0.86073503  0.99940010  0.51089490    -0.14560
C3741       C  0.86770251  0.50680610  0.55763074     0.36070
C3742       C  0.84850908  0.52245288  0.58708042    -0.25940
C3743       C  0.82179917  0.53205667  0.57186062    -0.15180
C3744       C  0.81498654  0.52264153  0.52505335     0.37150
N3745       N  0.78830988  0.52695765  0.50570595    -0.89430
H3746       H  0.82797261  0.00093799  0.46090497     0.18270
H3747       H  0.85474356  0.52678810  0.62281998     0.18260
N3748       N  0.89423291  0.49942183  0.57617677    -0.88460
H3749       H  0.79020157  0.54061176  0.47537245     0.35640
H3750       H  0.78028453  0.50478256  0.49648947     0.40730
H3751       H  0.90922292  0.00920433  0.55409255     0.40350
H3752       H  0.89655004  0.47481129  0.57637720     0.35240
C3753       C  0.93370941  0.97044614  0.92818843    -0.26490
C3754       C  0.91475330  0.95442141  0.89796307    -0.14560
C3755       C  0.88631516  0.95840492  0.90851300     0.36070
C3756       C  0.87840761  0.97391796  0.95031810    -0.25940
C3757       C  0.89722666  0.98910074  0.98051538    -0.15180
C3758       C  0.92549056  0.48769291  0.96862209     0.37150
N3759       N  0.94559799  0.50308556  0.99756720    -0.89430
H3760       H  0.95561309  0.96814367  0.92151016     0.18270
H3761       H  0.85684178  0.97410875  0.95938794     0.18260
N3762       N  0.86516376  0.94694880  0.87789333    -0.88460
H3763       H  0.96528834  0.50037880  0.98308009     0.35640
H3764       H  0.94574466  0.49142508  0.02977618     0.40730
H3765       H  0.86588401  0.96024691  0.84723759     0.40350
H3766       H  0.84553344  0.95049858  0.89232974     0.35240
C3767       C  0.97617977  0.95180364  0.83251684    -0.26490
C3768       C  0.94703117  0.95393920  0.83177633    -0.14560
C3769       C  0.93561603  0.97924444  0.80540882     0.36070
C3770       C  0.95240088  0.49760713  0.77588823    -0.25940
C3771       C  0.98071787  0.49203795  0.77241073    -0.15180
C3772       C  0.49288608  0.96929794  0.80150467     0.37150
N3773       N  0.52190572  0.96273265  0.79753058    -0.89430
H3774       H  0.98646274  0.93655908  0.85687022     0.18270
H3775       H  0.94304817  0.51560317  0.75421573     0.18260
N3776       N  0.90663214  0.48543587  0.80676145    -0.88460
H3777       H  0.52738910  0.94393649  0.81928136     0.35640
H3778       H  0.53254652  0.98265214  0.80969111     0.40730
H3779       H  0.89898285  0.98331287  0.77274447     0.40350
H3780       H  0.90374519  0.50883993  0.81788112     0.35240
C3781       C  0.89322226  0.89013046  0.74985296    -0.26490
C3782       C  0.87148490  0.87199922  0.76890065    -0.14560
C3783       C  0.86856416  0.87295019  0.81876375     0.36070
C3784       C  0.88740783  0.89102773  0.84603180    -0.25940
C3785       C  0.90765335  0.91155373  0.82647100    -0.15180
C3786       C  0.91113129  0.90886664  0.77679960     0.37150
N3787       N  0.93396509  0.92289506  0.75243394    -0.89430
H3788       H  0.89733070  0.88936285  0.71254304     0.18270
H3789       H  0.88528940  0.88997867  0.88374395     0.18260
N3790       N  0.84694981  0.85675554  0.84385499    -0.88460
H3791       H  0.94538251  0.90489805  0.73617441     0.35640
H3792       H  0.92625945  0.93762507  0.72626022     0.40730
H3793       H  0.83216322  0.84729726  0.82178858     0.40350
H3794       H  0.83633320  0.87373010  0.86373911     0.35240
C3795       C  0.93547226  0.89875303  0.93471029    -0.26490
C3796       C  0.94325793  0.90488094  0.88792278    -0.14560
C3797       C  0.96386316  0.88465196  0.86867385     0.36070
C3798       C  0.48148560  0.86789923  0.89894857    -0.25940
C3799       C  0.97709846  0.86869374  0.94770783    -0.15180
C3800       C  0.95214388  0.88191179  0.96465055     0.37150
N3801       N  0.94247958  0.87822012  0.01183234    -0.89430
H3802       H  0.91659516  0.90816146  0.94955664     0.18270
H3803       H  0.49888538  0.85505496  0.88436901     0.18260
N3804       N  0.96757608  0.88182312  0.81907441    -0.88460
H3805       H  0.95466189  0.89158231  0.03453971     0.35640
H3806       H  0.94292651  0.85419739  0.02049316     0.40730
H3807       H  0.96447326  0.85807188  0.80992846     0.40350
H3808       H  0.48802056  0.88751001  0.81075563     0.35240
loop_ 
_geom_bond_atom_site_label_1 
_geom_bond_atom_site_label_2 
_geom_bond_distance 
_geom_bond_site_symmetry_2 
_ccdc_geom_bond_type 
C1          C898   1.589       .  S
C1          C912   1.568       .  S
C1          C929   1.594       .  S
C1          C940   1.565       .  S
O2          Zr14   2.345       .  S
O2            C4   1.269       .  A
O3          Zr40   2.464       .  S
O3            C4   1.299       .  A
C4         C1148   1.442       .  S
O5          Zr17   2.429       .  S
O5            C7   1.289       .  A
O6          Zr41   2.364       .  S
O6            C7   1.273       .  A
C7         C1298   1.411       .  S
O8          Zr17   2.464       .  S
O8           C10   1.294       .  A
O9          Zr40   2.444       .  S
O9           C10   1.290       .  A
C10         C884   1.504       .  S
O11         Zr14   2.427       .  S
O11          C13   1.285       .  A
O12         Zr41   2.410       .  S
O12          C13   1.283       .  A
C13         C856   1.459       .  S
Zr14         O20   2.382       .  S
Zr14         O21   2.323       .  S
Zr14         O44   2.331       .  S
Zr14         O46   2.378       .  S
Zr14        O967   2.435       .  S
Zr14       O1920   2.437       .  S
O15        Zr966   2.435   1_545  S
O15          H58   0.990       .  S
O16       Zr1918   2.437   1_455  S
O16          H57   0.990       .  S
O16          H61   0.990       .  S
Zr17         O21   2.371       .  S
Zr17         O20   2.359       .  S
Zr17         O45   2.341       .  S
Zr17         O47   2.378       .  S
Zr17         O19   2.436       .  S
Zr17        O970   2.429       .  S
O18        Zr969   2.429   1_545  S
O18          H59   0.989       .  S
O18          H62   0.990       .  S
O19          H52   0.990       .  S
O20         Zr40   2.393       .  S
O21         Zr41   2.399       .  S
O21          H48   0.965       .  S
O22         Zr34   2.350       .  S
O22          C24   1.270       .  A
O23         Zr41   2.405       .  S
O23          C24   1.286       .  A
C24        C2168   1.419       .  S
O25         Zr37   2.343       .  S
O25          C27   1.269       .  A
O26         Zr40   2.463       .  S
O26          C27   1.299       .  A
C27         C446   1.440       .  S
O28         Zr37   2.429       .  S
O28          C30   1.284       .  A
O29         Zr41   2.489       .  S
O29          C30   1.297       .  A
C30         C845   1.518       .  S
O31         Zr34   2.411       .  S
O31          C33   1.281       .  A
O32         Zr40   2.476       .  S
O32          C33   1.296       .  A
C33         C870   1.494       .  S
Zr34         O42   2.388       .  S
Zr34         O43   2.338       .  S
Zr34         O46   2.330       .  S
Zr34         O44   2.361       .  S
Zr34         O35   2.401       .  S
Zr34       O1940   2.435       .  S
O35          H55   0.989       .  S
O35          H60   0.990       .  S
O36       Zr1938   2.435   1_455  S
O36          H56   0.990       .  S
Zr37         O43   2.392       .  S
Zr37         O42   2.352       .  S
Zr37         O47   2.339       .  S
Zr37         O45   2.379       .  S
Zr37         O38   2.433       .  S
Zr37         O39   2.434       .  S
O38          H54   0.990       .  S
O39          H53   0.990       .  S
O39          H63   0.990       .  S
Zr40         O43   2.381       .  S
Zr40         O45   2.393       .  S
Zr40         O46   2.374       .  S
Zr41         O42   2.373       .  S
Zr41         O44   2.366       .  S
Zr41         O47   2.378       .  S
O42          H50   0.966       .  S
O45          H49   0.966       .  S
O46          H51   0.966       .  S
O64         Zr76   2.322       .  S
O64          C66   1.266       .  A
O65        Zr102   2.367       .  S
O65          C66   1.279       .  A
C66        C2188   1.393       .  S
O67         Zr79   2.356       .  S
O67          C69   1.272       .  A
O68        Zr103   2.416       .  S
O68          C69   1.288       .  A
C69         C443   1.431       .  S
O70         Zr79   2.424       .  S
O70          C72   1.284       .  A
O71        Zr102   2.428   1_554  S
O71          C72   1.284   1_554  A
C72         C814   1.474   1_556  S
O73         Zr76   2.409       .  S
O73          C75   1.280       .  A
O74        Zr103   2.456       .  S
O74          C75   1.291       .  A
C75         C831   1.481       .  S
Zr76         O82   2.388       .  S
Zr76         O83   2.344       .  S
Zr76        O106   2.321       .  S
Zr76        O108   2.375       .  S
Zr76         O77   2.434       .  S
Zr76       O1982   2.441       .  S
O77         H120   0.990       .  S
O78       Zr1980   2.441   1_455  S
O78         H119   0.990       .  S
O78         H123   0.990       .  S
Zr79         O83   2.394       .  S
Zr79         O82   2.343       .  S
Zr79        O107   2.351       .  S
Zr79        O109   2.374       .  S
Zr79         O80   2.434       .  S
Zr79         O81   2.436       .  S
O80         H121   0.990       .  S
O80         H124   0.990       .  S
O81         H114   0.990       .  S
O82        Zr102   2.369       .  S
O83        Zr103   2.375       .  S
O83         H110   0.966       .  S
O84         Zr96   2.311       .  S
O84          C86   1.265       .  A
O85        Zr103   2.392       .  S
O85          C86   1.284       .  A
C86        C2097   1.401       .  S
O87         Zr99   2.442       .  S
O87          C89   1.287       .  A
O88        Zr102   2.364       .  S
O88          C89   1.274       .  A
C89         C323   1.414   1_556  S
O90         Zr99   2.476       .  S
O90          C92   1.295       .  A
O91        Zr103   2.419       .  S
O91          C92   1.284       .  A
C92         C789   1.510       .  S
O93         Zr96   2.406       .  S
O93          C95   1.281       .  A
O94        Zr102   2.400       .  S
O94          C95   1.280       .  A
C95         C800   1.448   1_556  S
Zr96        O104   2.388       .  S
Zr96        O105   2.312       .  S
Zr96        O108   2.329       .  S
Zr96        O106   2.368       .  S
Zr96         O97   2.437       .  S
Zr96       O2002   2.437       .  S
O97         H117   0.990       .  S
O97         H122   0.990       .  S
O98       Zr2000   2.437   1_455  S
O98         H118   0.990       .  S
Zr99        O105   2.362       .  S
Zr99        O104   2.350       .  S
Zr99        O109   2.348       .  S
Zr99        O107   2.374       .  S
Zr99        O100   2.434       .  S
Zr99        O101   2.429       .  S
O100        H116   0.990       .  S
O101        H115   0.990       .  S
O101        H125   0.990       .  S
Zr102       O105   2.372       .  S
Zr102       O107   2.379       .  S
Zr102       O108   2.370       .  S
Zr103       O104   2.398       .  S
Zr103       O106   2.360       .  S
Zr103       O109   2.375       .  S
O104        H112   0.966       .  S
O107        H111   0.966       .  S
O108        H113   0.966       .  S
O126       Zr138   2.297       .  S
O126        C128   1.259       .  A
O127       Zr164   2.542       .  S
O127        C128   1.316       .  A
C128       C1278   1.456       .  S
O129       Zr141   2.367       .  S
O129        C131   1.275       .  A
O130       Zr165   2.406       .  S
O130        C131   1.283       .  A
C131        C261   1.418       .  S
O132       Zr141   2.428       .  S
O132        C134   1.285       .  A
O133       Zr164   2.504       .  S
O133        C134   1.303       .  A
C134        C758   1.504       .  S
O135       Zr138   2.375       .  S
O135        C137   1.272       .  A
O136       Zr165   2.524       .  S
O136        C137   1.303       .  A
C137        C744   1.502       .  S
Zr138       O144   2.351       .  S
Zr138       O145   2.330       .  S
Zr138       O168   2.330       .  S
Zr138       O170   2.370       .  S
Zr138       O139   2.436       .  S
Zr138      O1092   2.419       .  S
O139        H182   0.990   1_556  S
O140      Zr1090   2.419   1_545  S
O140        H181   0.990       .  S
O140        H185   0.989       .  S
Zr141       O145   2.375       .  S
Zr141       O144   2.332       .  S
Zr141       O169   2.342       .  S
Zr141       O171   2.373       .  S
Zr141       O142   2.435   1_556  S
Zr141       O143   2.435       .  S
O142        H183   0.990       .  S
O142        H186   0.989       .  S
O143        H176   0.990       .  S
O144       Zr164   2.352       .  S
O145       Zr165   2.392       .  S
O145        H172   0.965       .  S
O146       Zr158   2.361       .  S
O146        C148   1.273       .  A
O147       Zr165   2.434       .  S
O147        C148   1.289       .  A
C148       C1168   1.428       .  S
O149       Zr161   2.362       .  S
O149        C151   1.273       .  A
O150       Zr164   2.472       .  S
O150        C151   1.297       .  A
C151        C466   1.445       .  S
O152       Zr161   2.420       .  S
O152        C154   1.284       .  A
O153       Zr165   2.508       .  S
O153        C154   1.303       .  A
C154        C730   1.511       .  S
O155       Zr158   2.376       .  S
O155        C157   1.275       .  A
O156       Zr164   2.538       .  S
O156        C157   1.310       .  A
C157        C772   1.506       .  S
Zr158       O166   2.358       .  S
Zr158       O167   2.336       .  S
Zr158       O170   2.353       .  S
Zr158       O168   2.359       .  S
Zr158       O159   2.436       .  S
Zr158      O1112   2.434       .  S
O159        H179   0.990       .  S
O159        H184   0.990       .  S
O160      Zr1110   2.434   1_545  S
O160        H180   0.990       .  S
Zr161       O167   2.361       .  S
Zr161       O166   2.340       .  S
Zr161       O171   2.337       .  S
Zr161       O169   2.377       .  S
Zr161       O162   2.434       .  S
Zr161       O163   2.422       .  S
O162        H178   0.990       .  S
O163        H177   0.989       .  S
O163        H187   0.990       .  S
Zr164       O167   2.391       .  S
Zr164       O169   2.415       .  S
Zr164       O170   2.396       .  S
Zr165       O166   2.392       .  S
Zr165       O168   2.386       .  S
Zr165       O171   2.403       .  S
O166        H174   0.965       .  S
O169        H173   0.966       .  S
O170        H175   0.966       .  S
C188        C677   1.594       .  S
C188        C688   1.600       .  S
C188        C702   1.585       .  S
C188        C716   1.623       .  S
C189        C618   1.571       .  S
C189        C635   1.631       .  S
C189        C649   1.600       .  S
C189        C660   1.655       .  S
C190        C562   1.576       .  S
C190        C576   1.603       .  S
C190        C590   1.611       .  S
C190        C604   1.621       .  S
O191      Zr2107   2.327       .  S
O191       C2097   1.266       .  A
O192       Zr229   2.381       .  S
O192        C193   1.284   1_455  A
C193       O2095   1.266       .  A
C193       C1990   1.401       .  S
O194      Zr2110   2.349   1_565  S
O194        C196   1.270       .  A
O195       Zr230   2.463       .  S
O195       C2100   1.300   1_445  A
C196       O2099   1.300   1_565  A
C196        C956   1.442       .  S
O197      Zr2110   2.439       .  S
O197       C2103   1.285       .  A
O198       Zr229   2.423       .  S
O198        C199   1.284   1_455  A
C199       O2101   1.285       .  A
C199       C2819   1.474   1_545  S
O200      Zr2107   2.413       .  S
O200       C2106   1.281       .  A
O201       Zr230   2.484       .  S
O201        C202   1.299       .  A
C202       O2104   1.281   1_455  A
C202       C2497   1.499   1_455  S
Zr203      O2095   2.327   1_455  S
Zr203      O2104   2.413   1_455  S
Zr203       O209   2.377       .  S
Zr203       O210   2.332       .  S
Zr203       O233   2.345       .  S
Zr203       O235   2.389       .  S
Zr203       O205   2.435       .  S
Zr203      O2108   2.435   1_455  S
O204      Zr2107   2.435       .  S
O204        H247   0.990       .  S
O205        H246   0.990       .  S
O205       H2154   0.990   1_455  S
Zr206      O2098   2.349   1_445  S
Zr206      O2101   2.439   1_455  S
Zr206       O210   2.376       .  S
Zr206       O209   2.324       .  S
Zr206       O234   2.329       .  S
Zr206       O236   2.400       .  S
Zr206      O2111   2.434   1_455  S
Zr206      O1160   2.422   1_545  S
O207      Zr2110   2.434       .  S
O207        H248   0.990       .  S
O207        H251   0.990   1_545  S
O208      Zr1158   2.422       .  S
O208        H241   0.990       .  S
O209       Zr229   2.369       .  S
O210       Zr230   2.380       .  S
O210       H2141   0.965   1_455  S
O211       Zr223   2.377       .  S
O211        C213   1.276       .  A
O212       Zr230   2.454       .  S
O212        C213   1.297       .  A
C213        C387   1.452       .  S
O214       Zr226   2.421   1_565  S
O214        C216   1.287       .  A
O215       Zr229   2.390       .  S
O215        C216   1.277   1_545  A
C216       C1100   1.428       .  S
O217       Zr226   2.457   1_565  S
O217        C219   1.291       .  A
O218       Zr230   2.465       .  S
O218        C219   1.295   1_545  A
C219       C1598   1.495       .  S
O220       Zr223   2.428       .  S
O220        C222   1.285       .  A
O221       Zr229   2.449       .  S
O221        C222   1.290       .  A
C222        C674   1.494       .  S
Zr223       O231   2.368       .  S
Zr223       O232   2.349       .  S
Zr223       O235   2.342       .  S
Zr223       O233   2.393       .  S
Zr223       O224   2.439       .  S
Zr223       O225   2.425       .  S
O224        H244   0.990       .  S
O224        H249   0.990       .  S
O225        H245   0.989       .  S
Zr226       O232   2.375       .  S
Zr226       O231   2.347       .  S
Zr226       O236   2.361       .  S
Zr226       O234   2.369       .  S
Zr226       O227   2.432       .  S
Zr226      O1180   2.434   1_545  S
O227        H243   0.990       .  S
O228      Zr1178   2.434       .  S
O228        H242   0.990       .  S
O228        H252   0.990       .  S
Zr229       O232   2.373       .  S
Zr229       O234   2.374       .  S
Zr229       O235   2.381       .  S
Zr230       O231   2.387       .  S
Zr230       O233   2.387       .  S
Zr230       O236   2.400       .  S
O231        H239   0.965       .  S
O234       H1190   0.965   1_545  S
O235        H240   0.966       .  S
H237       O2114   0.965       .  S
H238       O1186   0.965       .  S
H250       O2109   0.990       .  S
O253      Zr2169   2.433       .  S
O253       C2159   1.285   1_554  A
O254       Zr291   2.421   1_556  S
O254        C255   1.284   1_455  A
C255       O2157   1.285   1_556  A
C255       C2847   1.483       .  S
O256       Zr268   2.467       .  S
O256        C258   1.292       .  A
O257       Zr292   2.409       .  S
O257        C258   1.285       .  A
C258        C621   1.478       .  S
O259       Zr268   2.419       .  S
O259        C261   1.287   1_554  A
O260       Zr291   2.361   1_556  S
O260        C261   1.272       .  A
O262      Zr2169   2.348       .  S
O262       C2168   1.271       .  A
O263       Zr292   2.407       .  S
O263        C264   1.285       .  A
C264       O2166   1.271       .  A
C264       C1928   1.419   1_455  S
Zr265      O2157   2.433   1_455  S
Zr265      O2166   2.348       .  S
Zr265       O271   2.339       .  S
Zr265       O272   2.387       .  S
Zr265       O295   2.370       .  S
Zr265       O297   2.324       .  S
Zr265       O266   2.434       .  S
Zr265      O2171   2.439   1_455  S
O266        H309   0.990       .  S
O267      Zr2169   2.439       .  S
O267        H308   0.989       .  S
O267        H312   0.990       .  S
Zr268       O272   2.348       .  S
Zr268       O271   2.371       .  S
Zr268       O296   2.374       .  S
Zr268       O298   2.347       .  S
Zr268       O269   2.432       .  S
Zr268       O270   2.432       .  S
O269        H310   0.989       .  S
O269        H313   0.990       .  S
O270        H303   0.989       .  S
O271       Zr291   2.389       .  S
O272       Zr292   2.397       .  S
O272        H299   0.966       .  S
O273      Zr2189   2.392       .  S
O273       C2179   1.278       .  A
O274       Zr292   2.464       .  S
O274        C275   1.292       .  A
C275       O2177   1.278   1_455  A
C275       C2483   1.482   1_455  S
O276       Zr288   2.421       .  S
O276        C278   1.283   1_554  A
O277       Zr291   2.454   1_556  S
O277        C278   1.286       .  A
C278        C691   1.493       .  S
O279       Zr288   2.363       .  S
O279        C281   1.273       .  A
O280       Zr292   2.424       .  S
O280        C281   1.290       .  A
C281        C390   1.437       .  S
O282      Zr2189   2.320       .  S
O282       C2188   1.266   1_554  A
O283       Zr291   2.372   1_556  S
O283        C284   1.281   1_455  A
C284       O2186   1.266   1_556  A
C284       C1970   1.394       .  S
Zr285      O2177   2.392   1_455  S
Zr285      O2186   2.320   1_455  S
Zr285       O293   2.338       .  S
Zr285       O294   2.375       .  S
Zr285       O297   2.370       .  S
Zr285       O295   2.327       .  S
Zr285       O286   2.433       .  S
Zr285      O2191   2.436   1_455  S
O286        H306   0.990       .  S
O286       H2215   0.990   1_455  S
O287      Zr2189   2.436       .  S
O287        H307   0.990       .  S
Zr288       O294   2.345       .  S
Zr288       O293   2.377       .  S
Zr288       O298   2.366       .  S
Zr288       O296   2.346       .  S
Zr288       O289   2.433       .  S
Zr288       O290   2.435       .  S
O289        H305   0.990       .  S
O290        H304   0.990       .  S
O290        H314   0.990       .  S
Zr291       O294   2.375       .  S
Zr291       O296   2.387       .  S
Zr291       O297   2.374       .  S
Zr292       O293   2.373       .  S
Zr292       O295   2.367       .  S
Zr292       O298   2.371       .  S
O293        H301   0.966       .  S
O296        H300   0.966       .  S
O297       H2206   0.965   1_455  S
H302       O2201   0.965       .  S
H311       O2190   0.990       .  S
O315      Zr1279   2.341       .  S
O315       C1269   1.252       .  A
O316       Zr353   2.514       .  S
O316        C317   1.277       .  A
C317       O1267   1.251       .  A
C317       C1853   1.513   1_544  S
O318       Zr330   2.389       .  S
O318        C320   1.275       .  A
O319       Zr354   2.524       .  S
O319        C320   1.308       .  A
C320        C705   1.509   1_554  S
O321       Zr330   2.367       .  S
O321        C323   1.273       .  A
O322       Zr353   2.406       .  S
O322        C323   1.281       .  A
O324      Zr1279   2.300   1_556  S
O324       C1278   1.261       .  A
O325       Zr354   2.550       .  S
O325        C326   1.320   1_544  A
C326       O1276   1.261       .  A
C326       C1080   1.456       .  S
Zr327      O1267   2.340       .  S
Zr327      O1276   2.301   1_544  S
Zr327       O333   2.348       .  S
Zr327       O334   2.365       .  S
Zr327       O357   2.382   1_545  S
Zr327       O359   2.355       .  S
Zr327       O328   2.439   1_554  S
Zr327      O1281   2.434   1_545  S
O328        H371   0.990       .  S
O329      Zr1279   2.432       .  S
O329        H370   0.990       .  S
O329        H374   0.990       .  S
Zr330       O334   2.340       .  S
Zr330       O333   2.354       .  S
Zr330       O358   2.364       .  S
Zr330       O360   2.353       .  S
Zr330       O331   2.437   1_554  S
Zr330       O332   2.436       .  S
O331        H372   0.990       .  S
O331        H375   0.989       .  S
O332        H365   0.990       .  S
O333       Zr353   2.402       .  S
O334       Zr354   2.391       .  S
O334        H361   0.964       .  S
O335      Zr1299   2.394       .  S
O335       C1289   1.276       .  A
O336       Zr354   2.587       .  S
O336        C337   1.320   1_545  A
C337       O1287   1.276       .  A
C337       C1584   1.545       .  S
O338       Zr350   2.412       .  S
O338        C340   1.282       .  A
O339       Zr353   2.479       .  S
O339        C340   1.297       .  A
C340        C565   1.485       .  S
O341       Zr350   2.387       .  S
O341        C343   1.278       .  A
O342       Zr354   2.504       .  S
O342        C343   1.303       .  A
C343        C407   1.471       .  S
O344      Zr1299   2.340       .  S
O344       C1298   1.268       .  A
O345       Zr353   2.414       .  S
O345        C346   1.284   1_545  A
C346       O1296   1.268       .  A
C346        C959   1.411       .  S
Zr347      O1287   2.393   1_545  S
Zr347      O1296   2.341   1_545  S
Zr347       O355   2.333       .  S
Zr347       O356   2.363       .  S
Zr347       O359   2.362       .  S
Zr347       O357   2.361   1_545  S
Zr347       O348   2.435       .  S
Zr347      O1301   2.434   1_545  S
O348        H368   0.989       .  S
O348       H1325   0.989   1_545  S
O349      Zr1299   2.434       .  S
O349        H369   0.990       .  S
Zr350       O356   2.351       .  S
Zr350       O355   2.363       .  S
Zr350       O360   2.365       .  S
Zr350       O358   2.356       .  S
Zr350       O351   2.435       .  S
Zr350       O352   2.433       .  S
O351        H367   0.990       .  S
O352        H366   0.990       .  S
O352        H376   0.990       .  S
Zr353       O356   2.386       .  S
Zr353       O358   2.411       .  S
Zr353       O359   2.435       .  S
Zr354       O355   2.390       .  S
Zr354       O357   2.402   1_545  S
Zr354       O360   2.417       .  S
O355        H363   0.964       .  S
O358        H362   0.966       .  S
O359       H1316   0.967   1_545  S
H364       O1311   0.967       .  S
H373       O1300   0.989       .  S
C377        C548   1.601       .  S
C377        C761   1.585       .  S
C377        C817   1.575       .  S
C377        C842   1.589       .  S
C378        C534   1.633       .  S
C378        C733   1.615       .  S
C378        C828   1.599       .  S
C378        C873   1.565       .  S
O379       Zr391   2.439       .  S
O379        C381   1.286       .  A
O380       Zr417   2.507       .  S
O380        C381   1.302       .  A
C381        C537   1.522       .  S
O382       Zr394   2.420       .  S
O382        C384   1.284       .  A
O383       Zr418   2.475       .  S
O383        C384   1.294       .  A
C384        C509   1.513       .  S
O385       Zr394   2.371       .  S
O385        C387   1.275       .  A
O386       Zr417   2.455       .  S
O386        C387   1.296       .  A
O388       Zr391   2.360       .  S
O388        C390   1.273       .  A
O389       Zr418   2.436       .  S
O389        C390   1.292       .  A
Zr391       O397   2.339       .  S
Zr391       O398   2.384       .  S
Zr391       O421   2.392       .  S
Zr391       O423   2.350       .  S
Zr391       O392   2.436       .  S
Zr391       O393   2.435       .  S
O392        H435   0.990       .  S
O393        H434   0.990       .  S
O393        H438   0.990       .  S
Zr394       O398   2.343       .  S
Zr394       O397   2.375       .  S
Zr394       O422   2.386       .  S
Zr394       O424   2.344       .  S
Zr394       O395   2.439       .  S
Zr394       O396   2.428       .  S
O395        H436   0.990       .  S
O395        H439   0.990       .  S
O396        H429   0.990       .  S
O397       Zr417   2.373       .  S
O398       Zr418   2.391       .  S
O398        H425   0.966       .  S
O399       Zr411   2.448       .  S
O399        C401   1.289       .  A
O400       Zr418   2.491       .  S
O400        C401   1.298       .  A
C401        C551   1.513       .  S
O402       Zr414   2.523       .  S
O402        C404   1.304       .  A
O403       Zr417   2.467       .  S
O403        C404   1.295       .  A
C404        C523   1.526       .  S
O405       Zr414   2.467       .  S
O405        C407   1.296       .  A
O406       Zr418   2.437       .  S
O406        C407   1.288       .  A
O408       Zr411   2.388       .  S
O408        C410   1.278       .  A
O409       Zr417   2.456       .  S
O409        C410   1.297       .  A
C410        C463   1.459       .  S
Zr411       O419   2.358       .  S
Zr411       O420   2.378       .  S
Zr411       O423   2.391       .  S
Zr411       O421   2.356       .  S
Zr411       O412   2.437       .  S
Zr411       O413   2.435       .  S
O412        H432   0.990       .  S
O412        H437   0.990       .  S
O413        H433   0.990       .  S
Zr414       O420   2.356       .  S
Zr414       O419   2.392       .  S
Zr414       O424   2.383       .  S
Zr414       O422   2.367       .  S
Zr414       O415   2.435       .  S
Zr414       O416   2.435       .  S
O415        H431   0.990       .  S
O416        H430   0.990       .  S
O416        H440   0.990       .  S
Zr417       O420   2.391       .  S
Zr417       O422   2.406       .  S
Zr417       O423   2.389       .  S
Zr418       O419   2.402       .  S
Zr418       O421   2.392       .  S
Zr418       O424   2.396       .  S
O419        H427   0.966       .  S
O422        H426   0.966       .  S
O423        H428   0.966       .  S
O441       Zr453   2.365       .  S
O441        C443   1.273       .  A
O442       Zr479   2.416       .  S
O442        C443   1.289       .  A
O444       Zr456   2.345       .  S
O444        C446   1.269       .  A
O445       Zr480   2.462       .  S
O445        C446   1.299       .  A
O447       Zr456   2.443       .  S
O447        C449   1.289       .  A
O448       Zr479   2.481       .  S
O448        C449   1.294       .  A
C449        C926   1.531       .  S
O450       Zr453   2.442       .  S
O450        C452   1.287       .  A
O451       Zr480   2.516       .  S
O451        C452   1.304       .  A
C452        C607   1.520       .  S
Zr453       O459   2.385       .  S
Zr453       O460   2.338       .  S
Zr453       O483   2.354       .  S
Zr453       O485   2.390       .  S
Zr453       O454   2.436       .  S
Zr453       O455   2.432       .  S
O454        H497   0.990       .  S
O455        H496   0.990       .  S
O455        H500   0.990       .  S
Zr456       O460   2.380       .  S
Zr456       O459   2.339       .  S
Zr456       O484   2.326       .  S
Zr456       O486   2.397       .  S
Zr456       O457   2.438       .  S
Zr456       O458   2.433       .  S
O457        H498   0.990       .  S
O457        H501   0.990       .  S
O458        H491   0.990       .  S
O459       Zr479   2.379       .  S
O460       Zr480   2.388       .  S
O460        H487   0.965       .  S
O461       Zr473   2.392       .  S
O461        C463   1.278       .  A
O462       Zr480   2.459       .  S
O462        C463   1.297       .  A
O464       Zr476   2.448       .  S
O464        C466   1.293       .  A
O465       Zr479   2.411       .  S
O465        C466   1.283       .  A
O467       Zr476   2.525       .  S
O467        C469   1.304       .  A
O468       Zr480   2.504       .  S
O468        C469   1.303       .  A
C469        C663   1.549       .  S
O470       Zr473   2.459       .  S
O470        C472   1.290       .  A
O471       Zr479   2.489       .  S
O471        C472   1.298       .  A
C472        C719   1.510       .  S
Zr473       O481   2.387       .  S
Zr473       O482   2.357       .  S
Zr473       O485   2.352       .  S
Zr473       O483   2.396       .  S
Zr473       O474   2.437       .  S
Zr473       O475   2.432       .  S
O474        H494   0.990       .  S
O474        H499   0.990       .  S
O475        H495   0.989       .  S
Zr476       O482   2.395       .  S
Zr476       O481   2.350       .  S
Zr476       O486   2.361       .  S
Zr476       O484   2.389       .  S
Zr476       O477   2.435       .  S
Zr476       O478   2.431       .  S
O477        H493   0.990       .  S
O478        H492   0.990       .  S
O478        H502   0.990       .  S
Zr479       O482   2.398       .  S
Zr479       O484   2.394       .  S
Zr479       O485   2.391       .  S
Zr480       O481   2.398       .  S
Zr480       O483   2.395       .  S
Zr480       O486   2.398       .  S
O481        H489   0.966       .  S
O484        H488   0.965       .  S
O485        H490   0.966       .  S
C503        C520   1.628       .  S
C503        C775   1.598       .  S
C503        C786   1.621       .  S
C503        C887   1.598       .  S
C504        C506   1.621       .  S
C504        C747   1.565       .  S
C504        C803   1.585       .  S
C504        C859   1.567       .  S
C505        C506   1.428       .  A
C505        C510   1.423       .  A
C505        H512   1.061       .  S
C506        C507   1.441       .  A
C507        C508   1.401       .  A
C507        N514   1.433       .  S
C508        C509   1.402       .  A
C508        H513   1.083       .  S
C509        C510   1.408       .  A
C510        N511   1.438       .  S
N511        H515   1.046       .  S
N511        H516   1.046       .  S
N514        H517   1.047       .  S
N514        H518   1.046       .  S
C519        C520   1.431       .  A
C519        C524   1.424       .  A
C519        H526   1.082       .  S
C520        C521   1.436       .  A
C521        C522   1.431       .  A
C521        N528   1.430       .  S
C522        C523   1.406       .  A
C522        H527   1.084       .  S
C523        C524   1.418       .  A
C524        N525   1.438       .  S
N525        H529   1.046       .  S
N525        H530   1.044       .  S
N528        H531   1.046       .  S
N528        H532   1.044       .  S
C533        C534   1.433       .  A
C533        C538   1.422       .  A
C533        H540   1.068       .  S
C534        C535   1.450       .  A
C535        C536   1.417       .  A
C535        N542   1.436       .  S
C536        C537   1.401       .  A
C536        H541   1.084       .  S
C537        C538   1.408       .  A
C538        N539   1.429       .  S
N539        H543   1.045       .  S
N539        H544   1.046       .  S
N542        H545   1.046       .  S
N542        H546   1.046       .  S
C547        C548   1.421       .  A
C547        C552   1.410       .  A
C547        H554   1.083       .  S
C548        C549   1.448       .  A
C549        C550   1.422       .  A
C549        N556   1.434       .  S
C550        C551   1.404       .  A
C550        H555   1.084       .  S
C551        C552   1.411       .  A
C552        N553   1.438       .  S
N553        H557   1.046       .  S
N553        H558   1.045       .  S
N556        H559   1.039       .  S
N556        H560   1.039       .  S
C561        C562   1.418       .  A
C561        C566   1.408       .  A
C561        H568   1.080       .  S
C562        C563   1.435       .  A
C563        C564   1.409       .  A
C563        N570   1.441       .  S
C564        C565   1.400       .  A
C564        H569   1.084       .  S
C565        C566   1.413       .  A
C566        N567   1.437       .  S
N567        H571   1.045       .  S
N567        H572   1.042       .  S
N570        H573   1.042       .  S
N570        H574   1.046       .  S
C575        C576   1.421       .  A
C575        C580   1.393       .  A
C575        H582   1.078       .  S
C576        C577   1.435       .  A
C577        C578   1.421       .  A
C577        N584   1.423       .  S
C578        C579   1.394       .  A
C578        H583   1.075       .  S
C579       C2179   1.482       .  S
C579        C580   1.400       .  A
C580       N2485   1.441       .  S
N581       C2484   1.441   1_455  S
N581        H585   1.046   1_455  S
N581        H586   1.046       .  S
N584        H587   1.044       .  S
N584        H588   1.045       .  S
C589        C590   1.418       .  A
C589        C594   1.408       .  A
C589        H596   1.081       .  S
C590        C591   1.449       .  A
C591       C2496   1.414       .  A
C591       N2502   1.429       .  S
C592       C2495   1.414       .  A
C592       C2497   1.389       .  A
C592        H597   1.084   1_655  S
C593       C2106   1.499       .  S
C593        C594   1.413       .  A
C593       C2496   1.389       .  A
C594        N595   1.432       .  S
N595        H599   1.046       .  S
N595        H600   1.046       .  S
N598       C2495   1.429       .  S
N598        H602   1.046   1_655  S
N598       H2505   1.045       .  S
H601       N2502   1.045       .  S
C603        C604   1.422       .  A
C603        C608   1.416       .  A
C603        H610   1.084       .  S
C604        C605   1.447       .  A
C605        C606   1.426       .  A
C605        N612   1.431       .  S
C606        C607   1.401       .  A
C606        H611   1.084       .  S
C607        C608   1.414       .  A
C608        N609   1.432       .  S
N609        H613   1.046       .  S
N609        H614   1.046       .  S
N612        H615   1.046       .  S
N612        H616   1.046       .  S
C617        C618   1.416       .  A
C617        C622   1.411       .  A
C617        H624   1.083       .  S
C618        C619   1.444       .  A
C619        C620   1.401       .  A
C619        N626   1.437       .  S
C620        C621   1.392       .  A
C620        H625   1.085       .  S
C621        C622   1.407       .  A
C622        N623   1.437       .  S
N623        H627   1.046       .  S
N623        H628   1.045       .  S
N626        H629   1.045       .  S
N626        H630   1.045       .  S
C631        C632   1.398       .  A
C631        C636   1.430       .  A
C631       H1590   1.083       .  S
C632       C1289   1.545       .  S
C632        C633   1.439       .  A
C633        C634   1.420       .  A
C633        N640   1.434       .  S
C634        C635   1.401       .  A
C634        H639   1.081       .  S
C635        C636   1.450       .  A
C636        N637   1.424       .  S
N637        H642   1.046       .  S
N637       H1593   1.046       .  S
H638       C1583   1.083       .  S
N640        H643   1.046       .  S
N640        H644   1.046       .  S
H641       N1589   1.046       .  S
C645        C646   1.385       .  A
C645        C650   1.402       .  A
C645        H652   1.086       .  S
C646       C1171   1.495       .  S
C646       C1599   1.417       .  A
C647       C1598   1.417       .  A
C647       C1600   1.423       .  A
C647        N654   1.437   1_565  S
C648        C649   1.425       .  A
C648       C1599   1.423       .  A
C648       H1605   1.080       .  S
C649        C650   1.443       .  A
C650        N651   1.423       .  S
N651        H655   1.045       .  S
N651        H656   1.047       .  S
H653       C1600   1.080       .  S
N654        H657   1.044       .  S
N654        H658   1.041       .  S
C659        C660   1.431       .  A
C659        C664   1.434       .  A
C659        H666   1.074       .  S
C660        C661   1.435       .  A
C661        C662   1.433       .  A
C661        N668   1.435       .  S
C662        C663   1.408       .  A
C662        H667   1.084       .  S
C663        C664   1.427       .  A
C664        N665   1.437       .  S
N665        H669   1.046       .  S
N665        H670   1.042       .  S
N668        H671   1.046       .  S
N668        H672   1.045       .  S
C673        C674   1.398       .  A
C673        C678   1.412       .  A
C673        H680   1.084       .  S
C674        C675   1.414       .  A
C675        C676   1.402       .  A
C675        N682   1.441       .  S
C676        C677   1.415       .  A
C676        H681   1.069       .  S
C677        C678   1.445       .  A
C678        N679   1.435       .  S
N679        H683   1.046       .  S
N679        H684   1.045       .  S
N682        H685   1.044       .  S
N682        H686   1.046       .  S
C687        C688   1.434       .  A
C687        C692   1.423       .  A
C687        H694   1.083       .  S
C688        C689   1.440       .  A
C689        C690   1.389       .  A
C689        N696   1.428       .  S
C690        C691   1.391       .  A
C690        H695   1.083   1_556  S
C691        C692   1.407       .  A
C692        N693   1.436       .  S
N693        H697   1.046       .  S
N693        H698   1.045       .  S
N696        H699   1.046       .  S
N696        H700   1.046       .  S
C701        C702   1.416       .  A
C701        C706   1.401       .  A
C701        H708   1.083       .  S
C702        C703   1.434       .  A
C703        C704   1.419       .  A
C703        N710   1.425       .  S
C704        C705   1.398       .  A
C704        H709   1.080       .  S
C705        C706   1.427       .  A
C706        N707   1.434       .  S
N707        H711   1.043       .  S
N707        H712   1.046   1_556  S
N710        H713   1.046       .  S
N710        H714   1.042       .  S
C715        C716   1.425       .  A
C715        C720   1.414       .  A
C715        H722   1.070       .  S
C716        C717   1.456       .  A
C717        C718   1.420       .  A
C717        N724   1.440       .  S
C718        C719   1.399       .  A
C718        H723   1.084       .  S
C719        C720   1.409       .  A
C720        N721   1.434       .  S
N721        H725   1.046       .  S
N721        H726   1.043       .  S
N724        H727   1.038       .  S
N724        H728   1.045       .  S
C729        C730   1.404       .  A
C729        C734   1.410       .  A
C729        H736   1.085       .  S
C730        C731   1.414       .  A
C731        C732   1.421       .  A
C731        N738   1.438       .  S
C732        C733   1.438       .  A
C732        H737   1.080       .  S
C733        C734   1.425       .  A
C734        N735   1.420       .  S
N735        H739   1.046       .  S
N735        H740   1.046       .  S
N738        H741   1.041       .  S
N738        H742   1.046       .  S
C743        C744   1.396       .  A
C743        C748   1.415   1_556  A
C743        H750   1.083       .  S
C744       C1697   1.425   1_556  A
C745        C746   1.396       .  A
C745       C1696   1.425   1_544  A
C745        N752   1.429       .  S
C746        C747   1.397       .  A
C746        H751   1.080       .  S
C747       C1700   1.435       .  A
C748       C1699   1.435       .  A
C748        N749   1.429       .  S
N749        H753   1.046       .  S
N749       H1706   1.046   1_554  S
N752        H755   1.046   1_545  S
N752        H756   1.046       .  S
H754       N1701   1.046   1_556  S
C757        C758   1.407   1_554  A
C757        C762   1.413       .  A
C757        H764   1.084       .  S
C758        C759   1.408       .  A
C759        C760   1.421   1_556  A
C759        N766   1.438       .  S
C760        C761   1.429       .  A
C760        H765   1.077   1_554  S
C761        C762   1.422       .  A
C762        N763   1.433       .  S
N763        H767   1.045       .  S
N763        H768   1.045       .  S
N766        H769   1.045       .  S
N766        H770   1.046       .  S
C771        C772   1.403       .  A
C771        C776   1.425       .  A
C771        H778   1.084       .  S
C772       C1725   1.415       .  A
C773        C774   1.409       .  A
C773       C1724   1.415   1_545  A
C773        N780   1.433       .  S
C774        C775   1.419       .  A
C774        H779   1.083       .  S
C775       C1728   1.438   1_545  A
C776       C1727   1.438       .  A
C776        N777   1.429       .  S
N777        H781   1.044       .  S
N777        H782   1.046       .  S
N780        H783   1.045       .  S
N780        H784   1.046       .  S
C785        C786   1.430       .  A
C785        C790   1.398       .  A
C785        H792   1.063       .  S
C786        C787   1.448       .  A
C787        C788   1.423       .  A
C787        N794   1.440       .  S
C788        C789   1.410       .  A
C788        H793   1.084       .  S
C789        C790   1.403       .  A
C790        N791   1.442       .  S
N791        H795   1.045       .  S
N791        H796   1.046       .  S
N794        H797   1.040       .  S
N794        H798   1.046       .  S
C799        C804   1.396       .  A
C799       C2704   1.390   1_455  A
C799        H806   1.085   1_554  S
C800        C801   1.391       .  A
C800       C2703   1.390       .  A
C801        C802   1.394       .  A
C801        N808   1.440       .  S
C802       C2707   1.431       .  A
C802        H807   1.075       .  S
C803        C804   1.430       .  A
C803       C2706   1.431       .  A
C804        N805   1.429       .  S
N805        H809   1.047       .  S
N805        H810   1.046   1_554  S
N808        H811   1.045       .  S
N808        H812   1.046       .  S
C813        C814   1.397       .  A
C813        C818   1.396       .  A
C813        H820   1.085   1_554  S
C814        C815   1.404       .  A
C815        C816   1.410       .  A
C815        N822   1.437       .  S
C816        C817   1.424       .  A
C816        H821   1.079       .  S
C817        C818   1.421       .  A
C818        N819   1.428       .  S
N819        H823   1.046       .  S
N819        H824   1.046   1_554  S
N822        H825   1.045       .  S
N822        H826   1.046       .  S
C827        C828   1.417       .  A
C827        C832   1.406       .  A
C827        H834   1.083       .  S
C828       C2733   1.450   1_455  A
C829        C830   1.403       .  A
C829       C2732   1.450       .  A
C829        N836   1.432       .  S
C830        C831   1.387       .  A
C830        H835   1.085       .  S
C831       C2736   1.416       .  A
C832       C2735   1.416   1_455  A
C832        N833   1.439       .  S
N833        H837   1.046       .  S
N833        H838   1.044       .  S
N836        H839   1.046       .  S
N836        H840   1.046       .  S
C841        C842   1.411       .  A
C841        C846   1.408       .  A
C841        H848   1.080       .  S
C842        C843   1.431       .  A
C843        C844   1.420       .  A
C843        N850   1.433       .  S
C844        C845   1.407       .  A
C844        H849   1.083       .  S
C845        C846   1.423       .  A
C846        N847   1.438       .  S
N847        H851   1.046       .  S
N847        H852   1.046       .  S
N850        H853   1.045       .  S
N850        H854   1.046       .  S
C855        C856   1.395       .  A
C855       C2764   1.403       .  A
C855        H862   1.084       .  S
C856       C1809   1.399       .  A
C857        C858   1.396       .  A
C857       C1808   1.399   1_545  A
C857        N864   1.439       .  S
C858       C2763   1.423       .  A
C858        H863   1.084       .  S
C859       C2762   1.423       .  A
C859       C1812   1.429   1_545  A
C860       C2759   1.403       .  A
C860       C1811   1.429       .  A
C860        N861   1.431       .  S
N861        H865   1.044       .  S
N861        H866   1.045       .  S
N864        H867   1.046       .  S
N864        H868   1.046       .  S
C869        C870   1.403       .  A
C869        C874   1.407       .  A
C869        H876   1.084       .  S
C870        C871   1.407       .  A
C871       C2776   1.416       .  A
C871        N878   1.433       .  S
C872        C873   1.416       .  A
C872       C2775   1.416       .  A
C872        H877   1.080       .  S
C873       C2778   1.433       .  A
C874       C2777   1.433       .  A
C874        N875   1.441       .  S
N875        H879   1.046       .  S
N875       H2784   1.043       .  S
N878        H881   1.046       .  S
N878       H2786   1.042       .  S
H880       N2779   1.043       .  S
H882       N2782   1.042       .  S
C883        C884   1.396       .  A
C883       C1840   1.403       .  A
C883        H890   1.085       .  S
C884       C1837   1.414       .  A
C885        C886   1.413       .  A
C885       C1836   1.414   1_545  A
C885        N892   1.431   1_545  S
C886        C887   1.430       .  A
C886        H891   1.082       .  S
C887        C888   1.434       .  A
C888       C1835   1.403       .  A
C888        N889   1.423       .  S
N889        H893   1.046       .  S
N889        H894   1.046       .  S
N892        H896   1.045       .  S
N892       H1847   1.045   1_565  S
H895       N1844   1.045       .  S
C897        C898   1.433       .  A
C897       C1854   1.416       .  A
C897        H904   1.082       .  S
C898        C899   1.419       .  A
C899        C900   1.410       .  A
C899        N906   1.436       .  S
C900        C901   1.411       .  A
C900        H905   1.076       .  S
C901       C1269   1.496   1_556  S
C901       C1854   1.402       .  A
C902       C1849   1.417       .  A
C902       C1853   1.405       .  A
C902        N903   1.437   1_565  S
N903        H907   1.044       .  S
N903        H908   1.046   1_546  S
N906        H909   1.043       .  S
N906        H910   1.046       .  S
C911        C912   1.417       .  A
C911       C2820   1.407       .  A
C911        H918   1.076       .  S
C912        C913   1.425       .  A
C913       C1866   1.403       .  A
C913       N1872   1.430       .  S
C914        C915   1.397       .  A
C914       C1865   1.403       .  A
C914        H919   1.084   1_565  S
C915       C2103   1.474   1_565  S
C915       C3772   1.406       .  A
C916       C2815   1.407       .  A
C916       C3771   1.406       .  A
C916        N917   1.439   1_655  S
N917        H921   1.046       .  S
N917        H922   1.045       .  S
N920       C1865   1.430       .  S
N920        H924   1.045   1_565  S
N920       H1875   1.045       .  S
H923       N1872   1.045       .  S
C925        C926   1.409       .  A
C925        C930   1.405       .  A
C925        H932   1.083       .  S
C926        C927   1.431       .  A
C927        C928   1.424       .  A
C927        N934   1.439       .  S
C928        C929   1.421       .  A
C928        H933   1.083       .  S
C929        C930   1.432       .  A
C930        N931   1.432       .  S
N931        H935   1.046       .  S
N931        H936   1.046       .  S
N934        H937   1.037       .  S
N934        H938   1.046       .  S
C939        C940   1.411       .  A
C939        C944   1.381       .  A
C939        H946   1.082       .  S
C940        C941   1.422       .  A
C941       C2846   1.413       .  A
C941        N948   1.432       .  S
C942       C2845   1.413       .  A
C942       C2847   1.408       .  A
C942        H947   1.083       .  S
C943       C2159   1.483       .  S
C943        C944   1.415       .  A
C943       C2846   1.408       .  A
C944        N945   1.433   1_556  S
N945        H949   1.044       .  S
N945        H950   1.045       .  S
N948        H951   1.045       .  S
N948       H2856   1.046       .  S
H952       N2852   1.046       .  S
C953       C1850   1.589       .  S
C953       C1864   1.568       .  S
C953       C1881   1.594       .  S
C953       C1892   1.565       .  S
O954       Zr966   2.345       .  S
O954        C956   1.269       .  A
O955       Zr992   2.464       .  S
O955        C956   1.299       .  A
O957       Zr969   2.429       .  S
O957        C959   1.289       .  A
O958       Zr993   2.364       .  S
O958        C959   1.273       .  A
O960       Zr969   2.464       .  S
O960        C962   1.294       .  A
O961       Zr992   2.444       .  S
O961        C962   1.290       .  A
C962       C1836   1.504       .  S
O963       Zr966   2.427       .  S
O963        C965   1.285       .  A
O964       Zr993   2.410       .  S
O964        C965   1.283       .  A
C965       C1808   1.459       .  S
Zr966       O972   2.382       .  S
Zr966       O973   2.323       .  S
Zr966       O996   2.331       .  S
Zr966       O998   2.378       .  S
Zr966      O2872   2.437       .  S
O967       H1010   0.990       .  S
O968      Zr2870   2.437   1_455  S
O968       H1009   0.990       .  S
O968       H1013   0.990       .  S
Zr969       O973   2.371       .  S
Zr969       O972   2.359       .  S
Zr969       O997   2.341       .  S
Zr969       O999   2.378       .  S
Zr969       O971   2.436       .  S
O970       H1011   0.989       .  S
O970       H1014   0.990       .  S
O971       H1004   0.990       .  S
O972       Zr992   2.393       .  S
O973       Zr993   2.399       .  S
O973       H1000   0.965       .  S
O974       Zr986   2.350       .  S
O974        C976   1.270       .  A
O975       Zr993   2.405       .  S
O975        C976   1.286       .  A
C976       C3120   1.419       .  S
O977       Zr989   2.343       .  S
O977        C979   1.269       .  A
O978       Zr992   2.464       .  S
O978        C979   1.299       .  A
C979       C1398   1.440       .  S
O980       Zr989   2.429       .  S
O980        C982   1.284       .  A
O981       Zr993   2.489       .  S
O981        C982   1.297       .  A
C982       C1797   1.518       .  S
O983       Zr986   2.411       .  S
O983        C985   1.281       .  A
O984       Zr992   2.476       .  S
O984        C985   1.296       .  A
C985       C1822   1.494       .  S
Zr986       O994   2.388       .  S
Zr986       O995   2.338       .  S
Zr986       O998   2.330       .  S
Zr986       O996   2.361       .  S
Zr986       O987   2.401       .  S
Zr986      O2892   2.435       .  S
O987       H1007   0.989       .  S
O987       H1012   0.990       .  S
O988      Zr2890   2.435   1_455  S
O988       H1008   0.990       .  S
Zr989       O995   2.392       .  S
Zr989       O994   2.352       .  S
Zr989       O999   2.339       .  S
Zr989       O997   2.379       .  S
Zr989       O990   2.433       .  S
Zr989       O991   2.434       .  S
O990       H1006   0.990       .  S
O991       H1005   0.990       .  S
O991       H1015   0.990       .  S
Zr992       O995   2.381       .  S
Zr992       O997   2.393       .  S
Zr992       O998   2.374       .  S
Zr993       O994   2.373       .  S
Zr993       O996   2.366       .  S
Zr993       O999   2.378       .  S
O994       H1002   0.966       .  S
O997       H1001   0.966       .  S
O998       H1003   0.966       .  S
O1016     Zr1028   2.322       .  S
O1016      C1018   1.266       .  A
O1017     Zr1054   2.367       .  S
O1017      C1018   1.279       .  A
C1018      C3140   1.394       .  S
O1019     Zr1031   2.356       .  S
O1019      C1021   1.272       .  A
O1020     Zr1055   2.416       .  S
O1020      C1021   1.288       .  A
C1021      C1395   1.431       .  S
O1022     Zr1031   2.424       .  S
O1022      C1024   1.284       .  A
O1023     Zr1054   2.428   1_554  S
O1023      C1024   1.284   1_554  A
C1024      C1766   1.474   1_556  S
O1025     Zr1028   2.409       .  S
O1025      C1027   1.280       .  A
O1026     Zr1055   2.456       .  S
O1026      C1027   1.291       .  A
C1027      C1783   1.481       .  S
Zr1028     O1034   2.388       .  S
Zr1028     O1035   2.344       .  S
Zr1028     O1058   2.321       .  S
Zr1028     O1060   2.375       .  S
Zr1028     O1029   2.434       .  S
Zr1028     O2934   2.441       .  S
O1029      H1072   0.990       .  S
O1030     Zr2932   2.441   1_455  S
O1030      H1071   0.990       .  S
O1030      H1075   0.990       .  S
Zr1031     O1035   2.394       .  S
Zr1031     O1034   2.343       .  S
Zr1031     O1059   2.351       .  S
Zr1031     O1061   2.374       .  S
Zr1031     O1032   2.434       .  S
Zr1031     O1033   2.436       .  S
O1032      H1073   0.990       .  S
O1032      H1076   0.990       .  S
O1033      H1066   0.990       .  S
O1034     Zr1054   2.370       .  S
O1035     Zr1055   2.375       .  S
O1035      H1062   0.966       .  S
O1036     Zr1048   2.311       .  S
O1036      C1038   1.265       .  A
O1037     Zr1055   2.391       .  S
O1037      C1038   1.284       .  A
C1038      C3049   1.401       .  S
O1039     Zr1051   2.442       .  S
O1039      C1041   1.287       .  A
O1040     Zr1054   2.365       .  S
O1040      C1041   1.274       .  A
C1041      C1275   1.414   1_556  S
O1042     Zr1051   2.476       .  S
O1042      C1044   1.295       .  A
O1043     Zr1055   2.419       .  S
O1043      C1044   1.284       .  A
C1044      C1741   1.510       .  S
O1045     Zr1048   2.406       .  S
O1045      C1047   1.281       .  A
O1046     Zr1054   2.400       .  S
O1046      C1047   1.280       .  A
C1047      C1752   1.448   1_556  S
Zr1048     O1056   2.388       .  S
Zr1048     O1057   2.312       .  S
Zr1048     O1060   2.329       .  S
Zr1048     O1058   2.368       .  S
Zr1048     O1049   2.437       .  S
Zr1048     O2954   2.437       .  S
O1049      H1069   0.990       .  S
O1049      H1074   0.990       .  S
O1050     Zr2952   2.437   1_455  S
O1050      H1070   0.990       .  S
Zr1051     O1057   2.362       .  S
Zr1051     O1056   2.350       .  S
Zr1051     O1061   2.348       .  S
Zr1051     O1059   2.374       .  S
Zr1051     O1052   2.434       .  S
Zr1051     O1053   2.429       .  S
O1052      H1068   0.990       .  S
O1053      H1067   0.990       .  S
O1053      H1077   0.990       .  S
Zr1054     O1057   2.372       .  S
Zr1054     O1059   2.379       .  S
Zr1054     O1060   2.370       .  S
Zr1055     O1056   2.398       .  S
Zr1055     O1058   2.360       .  S
Zr1055     O1061   2.375       .  S
O1056      H1064   0.966       .  S
O1059      H1063   0.966       .  S
O1060      H1065   0.966       .  S
O1078     Zr1090   2.297       .  S
O1078      C1080   1.258       .  A
O1079     Zr1116   2.542       .  S
O1079      C1080   1.316       .  A
O1081     Zr1093   2.367       .  S
O1081      C1083   1.275       .  A
O1082     Zr1117   2.406       .  S
O1082      C1083   1.284       .  A
C1083      C1213   1.418       .  S
O1084     Zr1093   2.428       .  S
O1084      C1086   1.285       .  A
O1085     Zr1116   2.504       .  S
O1085      C1086   1.303       .  A
C1086      C1710   1.504       .  S
O1087     Zr1090   2.375       .  S
O1087      C1089   1.272       .  A
O1088     Zr1117   2.524       .  S
O1088      C1089   1.303       .  A
C1089      C1696   1.502       .  S
Zr1090     O1096   2.351       .  S
Zr1090     O1097   2.330       .  S
Zr1090     O1120   2.330       .  S
Zr1090     O1122   2.370       .  S
Zr1090     O1091   2.436       .  S
O1091      H1134   0.990   1_556  S
O1092      H1133   0.990       .  S
O1092      H1137   0.989       .  S
Zr1093     O1097   2.375       .  S
Zr1093     O1096   2.332       .  S
Zr1093     O1121   2.342       .  S
Zr1093     O1123   2.373       .  S
Zr1093     O1094   2.435   1_556  S
Zr1093     O1095   2.435       .  S
O1094      H1135   0.990       .  S
O1094      H1138   0.989       .  S
O1095      H1128   0.990       .  S
O1096     Zr1116   2.352       .  S
O1097     Zr1117   2.392       .  S
O1097      H1124   0.965       .  S
O1098     Zr1110   2.360       .  S
O1098      C1100   1.273       .  A
O1099     Zr1117   2.434       .  S
O1099      C1100   1.289       .  A
O1101     Zr1113   2.362       .  S
O1101      C1103   1.273       .  A
O1102     Zr1116   2.472       .  S
O1102      C1103   1.297       .  A
C1103      C1418   1.445       .  S
O1104     Zr1113   2.420       .  S
O1104      C1106   1.284       .  A
O1105     Zr1117   2.508       .  S
O1105      C1106   1.303       .  A
C1106      C1682   1.511       .  S
O1107     Zr1110   2.376       .  S
O1107      C1109   1.275       .  A
O1108     Zr1116   2.538       .  S
O1108      C1109   1.310       .  A
C1109      C1724   1.506       .  S
Zr1110     O1118   2.358       .  S
Zr1110     O1119   2.336       .  S
Zr1110     O1122   2.353       .  S
Zr1110     O1120   2.359       .  S
Zr1110     O1111   2.436       .  S
O1111      H1131   0.990       .  S
O1111      H1136   0.990       .  S
O1112      H1132   0.990       .  S
Zr1113     O1119   2.361       .  S
Zr1113     O1118   2.340       .  S
Zr1113     O1123   2.337       .  S
Zr1113     O1121   2.377       .  S
Zr1113     O1114   2.434       .  S
Zr1113     O1115   2.422       .  S
O1114      H1130   0.990       .  S
O1115      H1129   0.989       .  S
O1115      H1139   0.990       .  S
Zr1116     O1119   2.391       .  S
Zr1116     O1121   2.415       .  S
Zr1116     O1122   2.396       .  S
Zr1117     O1118   2.392       .  S
Zr1117     O1120   2.386       .  S
Zr1117     O1123   2.403       .  S
O1118      H1126   0.965       .  S
O1121      H1125   0.966       .  S
O1122      H1127   0.966       .  S
C1140      C1629   1.594       .  S
C1140      C1640   1.600       .  S
C1140      C1654   1.585       .  S
C1140      C1668   1.623       .  S
C1141      C1570   1.571       .  S
C1141      C1587   1.631       .  S
C1141      C1601   1.600       .  S
C1141      C1612   1.655       .  S
C1142      C1514   1.576       .  S
C1142      C1528   1.603       .  S
C1142      C1542   1.611       .  S
C1142      C1556   1.620       .  S
O1143     Zr3059   2.327       .  S
O1143      C3049   1.266       .  A
O1144     Zr1181   2.381       .  S
O1144      C1145   1.284   1_455  A
C1145      O3047   1.266       .  A
C1145      C2942   1.401       .  S
O1146     Zr3062   2.349       .  S
O1146      C1148   1.270       .  A
O1147     Zr1182   2.463       .  S
O1147      C3052   1.300   1_455  A
C1148      O3051   1.300       .  A
O1149     Zr3062   2.439       .  S
O1149      C3055   1.285       .  A
O1150     Zr1181   2.423       .  S
O1150      C1151   1.284   1_455  A
C1151      O3053   1.285       .  A
C1151      C3771   1.474       .  S
O1152     Zr3059   2.413       .  S
O1152      C3058   1.281       .  A
O1153     Zr1182   2.484       .  S
O1153      C1154   1.299       .  A
C1154      O3056   1.281   1_455  A
C1154      C3449   1.499   1_455  S
Zr1155     O3047   2.327   1_455  S
Zr1155     O3056   2.413   1_455  S
Zr1155     O1161   2.377       .  S
Zr1155     O1162   2.332       .  S
Zr1155     O1185   2.345       .  S
Zr1155     O1187   2.389       .  S
Zr1155     O3060   2.435   1_455  S
Zr1155     O1157   2.435       .  S
O1156     Zr3059   2.435       .  S
O1156      H1199   0.990       .  S
O1157      H1198   0.990       .  S
O1157      H3106   0.990   1_455  S
Zr1158     O3050   2.349   1_455  S
Zr1158     O3053   2.439   1_455  S
Zr1158     O1162   2.376       .  S
Zr1158     O1161   2.324       .  S
Zr1158     O1186   2.329       .  S
Zr1158     O1188   2.400       .  S
Zr1158     O3063   2.434   1_455  S
O1159     Zr3062   2.434       .  S
O1159      H1200   0.990       .  S
O1159      H1203   0.990       .  S
O1160      H1193   0.990       .  S
O1161     Zr1181   2.369       .  S
O1162     Zr1182   2.380       .  S
O1162      H3093   0.965   1_455  S
O1163     Zr1175   2.377       .  S
O1163      C1165   1.276       .  A
O1164     Zr1182   2.454       .  S
O1164      C1165   1.297       .  A
C1165      C1339   1.452       .  S
O1166     Zr1178   2.421       .  S
O1166      C1168   1.287       .  A
O1167     Zr1181   2.390       .  S
O1167      C1168   1.277       .  A
O1169     Zr1178   2.457       .  S
O1169      C1171   1.291       .  A
O1170     Zr1182   2.465       .  S
O1170      C1171   1.295       .  A
O1172     Zr1175   2.428       .  S
O1172      C1174   1.285       .  A
O1173     Zr1181   2.449       .  S
O1173      C1174   1.290       .  A
C1174      C1626   1.494       .  S
Zr1175     O1183   2.368       .  S
Zr1175     O1184   2.350       .  S
Zr1175     O1187   2.342       .  S
Zr1175     O1185   2.393       .  S
Zr1175     O1176   2.439       .  S
Zr1175     O1177   2.425       .  S
O1176      H1196   0.990       .  S
O1176      H1201   0.990       .  S
O1177      H1197   0.989       .  S
Zr1178     O1184   2.375       .  S
Zr1178     O1183   2.347       .  S
Zr1178     O1188   2.361       .  S
Zr1178     O1186   2.369       .  S
Zr1178     O1179   2.432       .  S
O1179      H1195   0.990       .  S
O1180      H1194   0.990       .  S
O1180      H1204   0.990       .  S
Zr1181     O1184   2.373       .  S
Zr1181     O1186   2.374       .  S
Zr1181     O1187   2.381       .  S
Zr1182     O1183   2.387       .  S
Zr1182     O1185   2.387       .  S
Zr1182     O1188   2.400       .  S
O1183      H1191   0.965       .  S
O1187      H1192   0.966       .  S
H1189      O3066   0.965       .  S
H1202      O3061   0.990       .  S
O1205     Zr3121   2.433       .  S
O1205      C3111   1.285   1_554  A
O1206     Zr1243   2.421   1_556  S
O1206      C1207   1.284   1_455  A
C1207      O3109   1.285   1_556  A
C1207      C3799   1.483       .  S
O1208     Zr1220   2.467       .  S
O1208      C1210   1.292       .  A
O1209     Zr1244   2.409       .  S
O1209      C1210   1.285       .  A
C1210      C1573   1.478       .  S
O1211     Zr1220   2.419       .  S
O1211      C1213   1.287   1_554  A
O1212     Zr1243   2.361   1_556  S
O1212      C1213   1.272       .  A
O1214     Zr3121   2.348       .  S
O1214      C3120   1.271       .  A
O1215     Zr1244   2.407       .  S
O1215      C1216   1.285       .  A
C1216      O3118   1.271       .  A
C1216      C2880   1.419   1_455  S
Zr1217     O3109   2.433   1_455  S
Zr1217     O3118   2.348       .  S
Zr1217     O1223   2.339       .  S
Zr1217     O1224   2.387       .  S
Zr1217     O1247   2.370       .  S
Zr1217     O1249   2.324       .  S
Zr1217     O1218   2.434       .  S
Zr1217     O3123   2.439   1_455  S
O1218      H1261   0.990       .  S
O1219     Zr3121   2.439       .  S
O1219      H1260   0.989       .  S
O1219      H1264   0.990       .  S
Zr1220     O1224   2.348       .  S
Zr1220     O1223   2.371       .  S
Zr1220     O1248   2.374       .  S
Zr1220     O1250   2.347       .  S
Zr1220     O1221   2.432       .  S
Zr1220     O1222   2.432       .  S
O1221      H1262   0.989       .  S
O1221      H1265   0.990       .  S
O1222      H1255   0.989       .  S
O1223     Zr1243   2.389       .  S
O1224     Zr1244   2.397       .  S
O1224      H1251   0.966       .  S
O1225     Zr3141   2.392       .  S
O1225      C3131   1.278       .  A
O1226     Zr1244   2.464       .  S
O1226      C1227   1.292       .  A
C1227      O3129   1.278   1_455  A
C1227      C3435   1.482   1_455  S
O1228     Zr1240   2.421       .  S
O1228      C1230   1.283   1_554  A
O1229     Zr1243   2.454   1_556  S
O1229      C1230   1.286       .  A
C1230      C1643   1.493       .  S
O1231     Zr1240   2.363       .  S
O1231      C1233   1.273       .  A
O1232     Zr1244   2.424       .  S
O1232      C1233   1.290       .  A
C1233      C1342   1.437       .  S
O1234     Zr3141   2.320       .  S
O1234      C3140   1.266   1_554  A
O1235     Zr1243   2.372   1_556  S
O1235      C1236   1.281   1_455  A
C1236      O3138   1.266   1_556  A
C1236      C2922   1.394       .  S
Zr1237     O3129   2.392   1_455  S
Zr1237     O3138   2.320   1_455  S
Zr1237     O1245   2.338       .  S
Zr1237     O1246   2.375       .  S
Zr1237     O1249   2.370       .  S
Zr1237     O1247   2.327       .  S
Zr1237     O1238   2.433       .  S
Zr1237     O3143   2.436   1_455  S
O1238      H1258   0.990       .  S
O1238      H3167   0.990   1_455  S
O1239     Zr3141   2.436       .  S
O1239      H1259   0.990       .  S
Zr1240     O1246   2.345       .  S
Zr1240     O1245   2.377       .  S
Zr1240     O1250   2.366       .  S
Zr1240     O1248   2.346       .  S
Zr1240     O1241   2.433       .  S
Zr1240     O1242   2.435       .  S
O1241      H1257   0.990       .  S
O1242      H1256   0.990       .  S
O1242      H1266   0.990       .  S
Zr1243     O1246   2.375       .  S
Zr1243     O1248   2.387       .  S
Zr1243     O1249   2.374       .  S
Zr1244     O1245   2.373       .  S
Zr1244     O1247   2.367       .  S
Zr1244     O1250   2.371       .  S
O1245      H1253   0.966       .  S
O1248      H1252   0.966       .  S
O1249      H3158   0.965   1_455  S
H1254      O3153   0.965       .  S
H1263      O3142   0.990       .  S
O1268     Zr1305   2.511       .  S
O1268      C1269   1.290       .  A
O1270     Zr1282   2.389       .  S
O1270      C1272   1.275       .  A
O1271     Zr1306   2.524       .  S
O1271      C1272   1.308       .  A
C1272      C1657   1.509   1_554  S
O1273     Zr1282   2.367       .  S
O1273      C1275   1.273       .  A
O1274     Zr1305   2.408       .  S
O1274      C1275   1.281       .  A
O1277     Zr1306   2.550       .  S
O1277      C1278   1.320   1_554  A
Zr1279     O1285   2.348       .  S
Zr1279     O1286   2.364       .  S
Zr1279     O1309   2.383       .  S
Zr1279     O1311   2.356       .  S
Zr1279     O1280   2.436   1_554  S
O1280      H1323   0.990       .  S
O1281      H1322   0.990       .  S
O1281      H1326   0.990       .  S
Zr1282     O1286   2.338       .  S
Zr1282     O1285   2.353       .  S
Zr1282     O1310   2.364       .  S
Zr1282     O1312   2.353       .  S
Zr1282     O1283   2.437   1_554  S
Zr1282     O1284   2.436       .  S
O1283      H1324   0.990       .  S
O1283      H1327   0.989       .  S
O1284      H1317   0.990       .  S
O1285     Zr1305   2.401       .  S
O1286     Zr1306   2.391       .  S
O1286      H1313   0.964       .  S
O1288     Zr1306   2.586       .  S
O1288      C1289   1.320       .  A
O1290     Zr1302   2.412       .  S
O1290      C1292   1.282       .  A
O1291     Zr1305   2.477       .  S
O1291      C1292   1.296       .  A
C1292      C1517   1.485       .  S
O1293     Zr1302   2.387       .  S
O1293      C1295   1.278       .  A
O1294     Zr1306   2.504       .  S
O1294      C1295   1.303       .  A
C1295      C1359   1.471       .  S
O1297     Zr1305   2.414       .  S
O1297      C1298   1.284       .  A
Zr1299     O1307   2.334       .  S
Zr1299     O1308   2.363       .  S
Zr1299     O1311   2.362       .  S
Zr1299     O1309   2.360       .  S
Zr1299     O1300   2.434       .  S
O1300      H1320   0.989       .  S
O1301      H1321   0.990       .  S
Zr1302     O1308   2.351       .  S
Zr1302     O1307   2.363       .  S
Zr1302     O1312   2.365       .  S
Zr1302     O1310   2.355       .  S
Zr1302     O1303   2.435       .  S
Zr1302     O1304   2.433       .  S
O1303      H1319   0.990       .  S
O1304      H1318   0.990       .  S
O1304      H1328   0.990       .  S
Zr1305     O1308   2.384       .  S
Zr1305     O1310   2.409       .  S
Zr1305     O1311   2.434       .  S
Zr1306     O1307   2.390       .  S
Zr1306     O1309   2.402       .  S
Zr1306     O1312   2.416       .  S
O1307      H1315   0.964       .  S
O1310      H1314   0.966       .  S
C1329      C1500   1.601       .  S
C1329      C1713   1.585       .  S
C1329      C1769   1.575       .  S
C1329      C1794   1.589       .  S
C1330      C1486   1.633       .  S
C1330      C1685   1.615       .  S
C1330      C1780   1.599       .  S
C1330      C1825   1.565       .  S
O1331     Zr1343   2.439       .  S
O1331      C1333   1.286       .  A
O1332     Zr1369   2.507       .  S
O1332      C1333   1.302       .  A
C1333      C1489   1.522       .  S
O1334     Zr1346   2.420       .  S
O1334      C1336   1.284       .  A
O1335     Zr1370   2.475       .  S
O1335      C1336   1.294       .  A
C1336      C1461   1.513       .  S
O1337     Zr1346   2.371       .  S
O1337      C1339   1.275       .  A
O1338     Zr1369   2.455       .  S
O1338      C1339   1.296       .  A
O1340     Zr1343   2.360       .  S
O1340      C1342   1.273       .  A
O1341     Zr1370   2.436       .  S
O1341      C1342   1.292       .  A
Zr1343     O1349   2.339       .  S
Zr1343     O1350   2.384       .  S
Zr1343     O1373   2.392       .  S
Zr1343     O1375   2.350       .  S
Zr1343     O1344   2.436       .  S
Zr1343     O1345   2.435       .  S
O1344      H1387   0.990       .  S
O1345      H1386   0.990       .  S
O1345      H1390   0.990       .  S
Zr1346     O1350   2.343       .  S
Zr1346     O1349   2.375       .  S
Zr1346     O1374   2.386       .  S
Zr1346     O1376   2.344       .  S
Zr1346     O1347   2.439       .  S
Zr1346     O1348   2.428       .  S
O1347      H1388   0.990       .  S
O1347      H1391   0.990       .  S
O1348      H1381   0.990       .  S
O1349     Zr1369   2.373       .  S
O1350     Zr1370   2.391       .  S
O1350      H1377   0.966       .  S
O1351     Zr1363   2.448       .  S
O1351      C1353   1.289       .  A
O1352     Zr1370   2.491       .  S
O1352      C1353   1.298       .  A
C1353      C1503   1.513       .  S
O1354     Zr1366   2.523       .  S
O1354      C1356   1.304       .  A
O1355     Zr1369   2.467       .  S
O1355      C1356   1.295       .  A
C1356      C1475   1.526       .  S
O1357     Zr1366   2.467       .  S
O1357      C1359   1.296       .  A
O1358     Zr1370   2.437       .  S
O1358      C1359   1.288       .  A
O1360     Zr1363   2.388       .  S
O1360      C1362   1.278       .  A
O1361     Zr1369   2.456       .  S
O1361      C1362   1.297       .  A
C1362      C1415   1.459       .  S
Zr1363     O1371   2.358       .  S
Zr1363     O1372   2.378       .  S
Zr1363     O1375   2.391       .  S
Zr1363     O1373   2.356       .  S
Zr1363     O1364   2.437       .  S
Zr1363     O1365   2.435       .  S
O1364      H1384   0.990       .  S
O1364      H1389   0.990       .  S
O1365      H1385   0.990       .  S
Zr1366     O1372   2.356       .  S
Zr1366     O1371   2.392       .  S
Zr1366     O1376   2.383       .  S
Zr1366     O1374   2.367       .  S
Zr1366     O1367   2.435       .  S
Zr1366     O1368   2.435       .  S
O1367      H1383   0.990       .  S
O1368      H1382   0.990       .  S
O1368      H1392   0.990       .  S
Zr1369     O1372   2.391       .  S
Zr1369     O1374   2.406       .  S
Zr1369     O1375   2.389       .  S
Zr1370     O1371   2.402       .  S
Zr1370     O1373   2.392       .  S
Zr1370     O1376   2.396       .  S
O1371      H1379   0.966       .  S
O1374      H1378   0.966       .  S
O1375      H1380   0.966       .  S
O1393     Zr1405   2.365       .  S
O1393      C1395   1.273       .  A
O1394     Zr1431   2.416       .  S
O1394      C1395   1.289       .  A
O1396     Zr1408   2.345       .  S
O1396      C1398   1.269       .  A
O1397     Zr1432   2.462       .  S
O1397      C1398   1.299       .  A
O1399     Zr1408   2.443       .  S
O1399      C1401   1.289       .  A
O1400     Zr1431   2.481       .  S
O1400      C1401   1.294       .  A
C1401      C1878   1.531       .  S
O1402     Zr1405   2.442       .  S
O1402      C1404   1.287       .  A
O1403     Zr1432   2.516       .  S
O1403      C1404   1.304       .  A
C1404      C1559   1.520       .  S
Zr1405     O1411   2.385       .  S
Zr1405     O1412   2.338       .  S
Zr1405     O1435   2.354       .  S
Zr1405     O1437   2.390       .  S
Zr1405     O1406   2.436       .  S
Zr1405     O1407   2.432       .  S
O1406      H1449   0.990       .  S
O1407      H1448   0.990       .  S
O1407      H1452   0.990       .  S
Zr1408     O1412   2.380       .  S
Zr1408     O1411   2.339       .  S
Zr1408     O1436   2.326       .  S
Zr1408     O1438   2.397       .  S
Zr1408     O1409   2.438       .  S
Zr1408     O1410   2.433       .  S
O1409      H1450   0.990       .  S
O1409      H1453   0.990       .  S
O1410      H1443   0.990       .  S
O1411     Zr1431   2.379       .  S
O1412     Zr1432   2.388       .  S
O1412      H1439   0.965       .  S
O1413     Zr1425   2.392       .  S
O1413      C1415   1.278       .  A
O1414     Zr1432   2.459       .  S
O1414      C1415   1.297       .  A
O1416     Zr1428   2.448       .  S
O1416      C1418   1.293       .  A
O1417     Zr1431   2.411       .  S
O1417      C1418   1.283       .  A
O1419     Zr1428   2.525       .  S
O1419      C1421   1.304       .  A
O1420     Zr1432   2.504       .  S
O1420      C1421   1.303       .  A
C1421      C1615   1.549       .  S
O1422     Zr1425   2.459       .  S
O1422      C1424   1.290       .  A
O1423     Zr1431   2.489       .  S
O1423      C1424   1.298       .  A
C1424      C1671   1.510       .  S
Zr1425     O1433   2.387       .  S
Zr1425     O1434   2.357       .  S
Zr1425     O1437   2.352       .  S
Zr1425     O1435   2.396       .  S
Zr1425     O1426   2.437       .  S
Zr1425     O1427   2.432       .  S
O1426      H1446   0.990       .  S
O1426      H1451   0.990       .  S
O1427      H1447   0.989       .  S
Zr1428     O1434   2.395       .  S
Zr1428     O1433   2.350       .  S
Zr1428     O1438   2.361       .  S
Zr1428     O1436   2.389       .  S
Zr1428     O1429   2.435       .  S
Zr1428     O1430   2.431       .  S
O1429      H1445   0.990       .  S
O1430      H1444   0.990       .  S
O1430      H1454   0.990       .  S
Zr1431     O1434   2.398       .  S
Zr1431     O1436   2.394       .  S
Zr1431     O1437   2.391       .  S
Zr1432     O1433   2.398       .  S
Zr1432     O1435   2.395       .  S
Zr1432     O1438   2.398       .  S
O1433      H1441   0.966       .  S
O1436      H1440   0.965       .  S
O1437      H1442   0.966       .  S
C1455      C1472   1.628       .  S
C1455      C1727   1.598       .  S
C1455      C1738   1.621       .  S
C1455      C1839   1.598       .  S
C1456      C1458   1.621       .  S
C1456      C1699   1.565       .  S
C1456      C1755   1.585       .  S
C1456      C1811   1.567       .  S
C1457      C1458   1.428       .  A
C1457      C1462   1.423       .  A
C1457      H1464   1.061       .  S
C1458      C1459   1.441       .  A
C1459      C1460   1.401       .  A
C1459      N1466   1.433       .  S
C1460      C1461   1.402       .  A
C1460      H1465   1.083       .  S
C1461      C1462   1.408       .  A
C1462      N1463   1.438       .  S
N1463      H1467   1.046       .  S
N1463      H1468   1.046       .  S
N1466      H1469   1.047       .  S
N1466      H1470   1.046       .  S
C1471      C1472   1.431       .  A
C1471      C1476   1.424       .  A
C1471      H1478   1.082       .  S
C1472      C1473   1.436       .  A
C1473      C1474   1.431       .  A
C1473      N1480   1.430       .  S
C1474      C1475   1.406       .  A
C1474      H1479   1.084       .  S
C1475      C1476   1.418       .  A
C1476      N1477   1.438       .  S
N1477      H1481   1.046       .  S
N1477      H1482   1.044       .  S
N1480      H1483   1.046       .  S
N1480      H1484   1.044       .  S
C1485      C1486   1.433       .  A
C1485      C1490   1.422       .  A
C1485      H1492   1.068       .  S
C1486      C1487   1.450       .  A
C1487      C1488   1.417       .  A
C1487      N1494   1.436       .  S
C1488      C1489   1.401       .  A
C1488      H1493   1.084       .  S
C1489      C1490   1.408       .  A
C1490      N1491   1.429       .  S
N1491      H1495   1.045       .  S
N1491      H1496   1.046       .  S
N1494      H1497   1.046       .  S
N1494      H1498   1.046       .  S
C1499      C1500   1.421       .  A
C1499      C1504   1.410       .  A
C1499      H1506   1.083       .  S
C1500      C1501   1.448       .  A
C1501      C1502   1.422       .  A
C1501      N1508   1.434       .  S
C1502      C1503   1.404       .  A
C1502      H1507   1.084       .  S
C1503      C1504   1.411       .  A
C1504      N1505   1.438       .  S
N1505      H1509   1.046       .  S
N1505      H1510   1.045       .  S
N1508      H1511   1.039       .  S
N1508      H1512   1.039       .  S
C1513      C1514   1.418       .  A
C1513      C1518   1.408       .  A
C1513      H1520   1.080       .  S
C1514      C1515   1.435       .  A
C1515      C1516   1.409       .  A
C1515      N1522   1.441       .  S
C1516      C1517   1.400       .  A
C1516      H1521   1.084       .  S
C1517      C1518   1.413       .  A
C1518      N1519   1.437       .  S
N1519      H1523   1.045       .  S
N1519      H1524   1.042       .  S
N1522      H1525   1.042       .  S
N1522      H1526   1.046       .  S
C1527      C1528   1.421       .  A
C1527      C1532   1.393       .  A
C1527      H1534   1.078       .  S
C1528      C1529   1.435       .  A
C1529      C1530   1.421       .  A
C1529      N1536   1.423       .  S
C1530      C1531   1.394       .  A
C1530      H1535   1.075       .  S
C1531      C3131   1.482       .  S
C1531      C1532   1.400       .  A
C1532      N3437   1.441       .  S
N1533      C3436   1.441   1_455  S
N1533      H1537   1.046   1_455  S
N1533      H1538   1.046       .  S
N1536      H1539   1.044       .  S
N1536      H1540   1.045       .  S
C1541      C1542   1.418       .  A
C1541      C1546   1.408       .  A
C1541      H1548   1.081       .  S
C1542      C1543   1.449       .  A
C1543      C3448   1.414       .  A
C1543      N3454   1.429       .  S
C1544      C3447   1.414       .  A
C1544      C3449   1.389       .  A
C1544      H1549   1.084   1_655  S
C1545      C3058   1.499       .  S
C1545      C3448   1.389       .  A
C1545      C1546   1.413       .  A
C1546      N1547   1.432       .  S
N1547      H1551   1.046       .  S
N1547      H1552   1.046       .  S
N1550      C3447   1.429       .  S
N1550      H3457   1.045       .  S
N1550      H1554   1.046   1_655  S
H1553      N3454   1.045       .  S
C1555      C1556   1.422       .  A
C1555      C1560   1.416       .  A
C1555      H1562   1.084       .  S
C1556      C1557   1.447       .  A
C1557      C1558   1.426       .  A
C1557      N1564   1.431       .  S
C1558      C1559   1.401       .  A
C1558      H1563   1.084       .  S
C1559      C1560   1.414       .  A
C1560      N1561   1.432       .  S
N1561      H1565   1.046       .  S
N1561      H1566   1.046       .  S
N1564      H1567   1.046       .  S
N1564      H1568   1.046       .  S
C1569      C1570   1.416       .  A
C1569      C1574   1.411       .  A
C1569      H1576   1.083       .  S
C1570      C1571   1.444       .  A
C1571      C1572   1.401       .  A
C1571      N1578   1.437       .  S
C1572      C1573   1.392       .  A
C1572      H1577   1.085       .  S
C1573      C1574   1.407       .  A
C1574      N1575   1.437       .  S
N1575      H1579   1.046       .  S
N1575      H1580   1.045       .  S
N1578      H1581   1.045       .  S
N1578      H1582   1.045       .  S
C1583      C1584   1.398       .  A
C1583      C1588   1.430       .  A
C1584      C1585   1.439       .  A
C1585      C1586   1.420       .  A
C1585      N1592   1.434       .  S
C1586      C1587   1.401       .  A
C1586      H1591   1.081       .  S
C1587      C1588   1.450       .  A
C1588      N1589   1.424       .  S
N1589      H1594   1.046       .  S
N1592      H1595   1.046       .  S
N1592      H1596   1.046       .  S
C1597      C1598   1.385       .  A
C1597      C1602   1.402       .  A
C1597      H1604   1.086       .  S
C1599      N1606   1.437       .  S
C1600      C1601   1.425       .  A
C1601      C1602   1.443       .  A
C1602      N1603   1.423       .  S
N1603      H1607   1.045       .  S
N1603      H1608   1.047       .  S
N1606      H1609   1.044       .  S
N1606      H1610   1.041       .  S
C1611      C1612   1.431       .  A
C1611      C1616   1.434       .  A
C1611      H1618   1.074       .  S
C1612      C1613   1.435       .  A
C1613      C1614   1.433       .  A
C1613      N1620   1.435       .  S
C1614      C1615   1.408       .  A
C1614      H1619   1.084       .  S
C1615      C1616   1.427       .  A
C1616      N1617   1.437       .  S
N1617      H1621   1.046       .  S
N1617      H1622   1.042       .  S
N1620      H1623   1.046       .  S
N1620      H1624   1.045       .  S
C1625      C1626   1.398       .  A
C1625      C1630   1.412       .  A
C1625      H1632   1.084       .  S
C1626      C1627   1.414       .  A
C1627      C1628   1.402       .  A
C1627      N1634   1.441       .  S
C1628      C1629   1.415       .  A
C1628      H1633   1.069       .  S
C1629      C1630   1.445       .  A
C1630      N1631   1.435       .  S
N1631      H1635   1.046       .  S
N1631      H1636   1.045       .  S
N1634      H1637   1.044       .  S
N1634      H1638   1.046       .  S
C1639      C1640   1.434       .  A
C1639      C1644   1.423       .  A
C1639      H1646   1.083       .  S
C1640      C1641   1.440       .  A
C1641      C1642   1.389       .  A
C1641      N1648   1.428       .  S
C1642      C1643   1.391       .  A
C1642      H1647   1.083   1_556  S
C1643      C1644   1.407       .  A
C1644      N1645   1.436       .  S
N1645      H1649   1.046       .  S
N1645      H1650   1.045       .  S
N1648      H1651   1.046       .  S
N1648      H1652   1.046       .  S
C1653      C1654   1.416       .  A
C1653      C1658   1.401       .  A
C1653      H1660   1.083       .  S
C1654      C1655   1.434       .  A
C1655      C1656   1.419       .  A
C1655      N1662   1.425       .  S
C1656      C1657   1.398       .  A
C1656      H1661   1.080       .  S
C1657      C1658   1.427       .  A
C1658      N1659   1.434       .  S
N1659      H1663   1.043       .  S
N1659      H1664   1.046   1_556  S
N1662      H1665   1.046       .  S
N1662      H1666   1.042       .  S
C1667      C1668   1.425       .  A
C1667      C1672   1.414       .  A
C1667      H1674   1.070       .  S
C1668      C1669   1.456       .  A
C1669      C1670   1.420       .  A
C1669      N1676   1.440       .  S
C1670      C1671   1.399       .  A
C1670      H1675   1.084       .  S
C1671      C1672   1.409       .  A
C1672      N1673   1.434       .  S
N1673      H1677   1.046       .  S
N1673      H1678   1.043       .  S
N1676      H1679   1.038       .  S
N1676      H1680   1.045       .  S
C1681      C1682   1.404       .  A
C1681      C1686   1.410       .  A
C1681      H1688   1.085       .  S
C1682      C1683   1.414       .  A
C1683      C1684   1.421       .  A
C1683      N1690   1.438       .  S
C1684      C1685   1.438       .  A
C1684      H1689   1.080       .  S
C1685      C1686   1.425       .  A
C1686      N1687   1.420       .  S
N1687      H1691   1.046       .  S
N1687      H1692   1.046       .  S
N1690      H1693   1.041       .  S
N1690      H1694   1.046       .  S
C1695      C1696   1.396       .  A
C1695      C1700   1.415   1_566  A
C1695      H1702   1.083       .  S
C1697      C1698   1.396       .  A
C1697      N1704   1.429       .  S
C1698      C1699   1.397       .  A
C1698      H1703   1.080       .  S
C1700      N1701   1.429       .  S
N1701      H1705   1.046   1_545  S
N1704      H1707   1.046       .  S
N1704      H1708   1.046       .  S
C1709      C1710   1.407   1_554  A
C1709      C1714   1.413       .  A
C1709      H1716   1.084       .  S
C1710      C1711   1.408       .  A
C1711      C1712   1.421   1_556  A
C1711      N1718   1.438       .  S
C1712      C1713   1.429       .  A
C1712      H1717   1.077   1_554  S
C1713      C1714   1.422       .  A
C1714      N1715   1.433       .  S
N1715      H1719   1.045       .  S
N1715      H1720   1.045       .  S
N1718      H1721   1.045       .  S
N1718      H1722   1.046       .  S
C1723      C1724   1.403       .  A
C1723      C1728   1.425       .  A
C1723      H1730   1.084       .  S
C1725      C1726   1.409       .  A
C1725      N1732   1.433       .  S
C1726      C1727   1.419       .  A
C1726      H1731   1.083       .  S
C1728      N1729   1.429       .  S
N1729      H1733   1.044       .  S
N1729      H1734   1.046       .  S
N1732      H1735   1.045       .  S
N1732      H1736   1.046       .  S
C1737      C1738   1.430       .  A
C1737      C1742   1.398       .  A
C1737      H1744   1.063       .  S
C1738      C1739   1.448       .  A
C1739      C1740   1.423       .  A
C1739      N1746   1.440       .  S
C1740      C1741   1.410       .  A
C1740      H1745   1.084       .  S
C1741      C1742   1.403       .  A
C1742      N1743   1.442       .  S
N1743      H1747   1.045       .  S
N1743      H1748   1.046       .  S
N1746      H1749   1.040       .  S
N1746      H1750   1.046       .  S
C1751      C3656   1.390   1_455  A
C1751      C1756   1.396       .  A
C1751      H1758   1.085   1_554  S
C1752      C3655   1.390       .  A
C1752      C1753   1.391       .  A
C1753      C1754   1.394       .  A
C1753      N1760   1.440       .  S
C1754      C3659   1.431       .  A
C1754      H1759   1.075       .  S
C1755      C3658   1.431       .  A
C1755      C1756   1.430       .  A
C1756      N1757   1.429       .  S
N1757      H1761   1.047       .  S
N1757      H1762   1.046   1_554  S
N1760      H1763   1.045       .  S
N1760      H1764   1.046       .  S
C1765      C1766   1.397       .  A
C1765      C1770   1.396       .  A
C1765      H1772   1.085   1_554  S
C1766      C1767   1.404       .  A
C1767      C1768   1.410       .  A
C1767      N1774   1.437       .  S
C1768      C1769   1.424       .  A
C1768      H1773   1.079       .  S
C1769      C1770   1.421       .  A
C1770      N1771   1.428       .  S
N1771      H1775   1.046       .  S
N1771      H1776   1.046   1_554  S
N1774      H1777   1.045       .  S
N1774      H1778   1.046       .  S
C1779      C1780   1.417       .  A
C1779      C1784   1.406       .  A
C1779      H1786   1.083       .  S
C1780      C3685   1.450   1_455  A
C1781      C3684   1.450       .  A
C1781      C1782   1.403       .  A
C1781      N1788   1.432       .  S
C1782      C1783   1.387       .  A
C1782      H1787   1.085       .  S
C1783      C3688   1.416       .  A
C1784      C3687   1.416   1_455  A
C1784      N1785   1.439       .  S
N1785      H1789   1.046       .  S
N1785      H1790   1.044       .  S
N1788      H1791   1.046       .  S
N1788      H1792   1.046       .  S
C1793      C1794   1.411       .  A
C1793      C1798   1.408       .  A
C1793      H1800   1.080       .  S
C1794      C1795   1.431       .  A
C1795      C1796   1.420       .  A
C1795      N1802   1.433       .  S
C1796      C1797   1.407       .  A
C1796      H1801   1.083       .  S
C1797      C1798   1.423       .  A
C1798      N1799   1.438       .  S
N1799      H1803   1.046       .  S
N1799      H1804   1.046       .  S
N1802      H1805   1.045       .  S
N1802      H1806   1.046       .  S
C1807      C1808   1.395       .  A
C1807      C3716   1.403       .  A
C1807      H1814   1.084       .  S
C1809      C1810   1.396       .  A
C1809      N1816   1.439       .  S
C1810      C3715   1.423       .  A
C1810      H1815   1.084       .  S
C1811      C3714   1.423       .  A
C1812      C3711   1.403       .  A
C1812      N1813   1.431       .  S
N1813      H1817   1.044       .  S
N1813      H1818   1.045       .  S
N1816      H1819   1.046       .  S
N1816      H1820   1.046       .  S
C1821      C1822   1.403       .  A
C1821      C1826   1.407       .  A
C1821      H1828   1.084       .  S
C1822      C1823   1.407       .  A
C1823      C3728   1.416       .  A
C1823      N1830   1.433       .  S
C1824      C3727   1.416       .  A
C1824      C1825   1.416       .  A
C1824      H1829   1.080       .  S
C1825      C3730   1.433       .  A
C1826      C3729   1.433       .  A
C1826      N1827   1.441       .  S
N1827      H1831   1.046       .  S
N1827      H3736   1.043       .  S
N1830      H1833   1.046       .  S
N1830      H3738   1.042       .  S
H1832      N3731   1.043       .  S
H1834      N3734   1.042       .  S
C1835      C1836   1.396   1_545  A
C1835      H1842   1.085       .  S
C1837      C1838   1.413       .  A
C1837      N1844   1.431       .  S
C1838      C1839   1.430       .  A
C1838      H1843   1.082       .  S
C1839      C1840   1.434       .  A
C1840      N1841   1.423       .  S
N1841      H1845   1.046       .  S
N1841      H1846   1.046       .  S
N1844      H1848   1.045       .  S
C1849      C1850   1.432       .  A
C1849      H1856   1.082       .  S
C1850      C1851   1.420       .  A
C1851      C1852   1.412       .  A
C1851      N1858   1.436       .  S
C1852      C1853   1.413       .  A
C1852      H1857   1.076       .  S
C1854      N1855   1.436       .  S
N1855      H1859   1.044       .  S
N1855      H1860   1.046   1_556  S
N1858      H1861   1.043       .  S
N1858      H1862   1.046       .  S
C1863      C1864   1.417       .  A
C1863      C3772   1.407       .  A
C1863      H1870   1.076       .  S
C1864      C1865   1.425       .  A
C1866      C1867   1.397       .  A
C1866      H1871   1.084       .  S
C1867      C3055   1.474       .  S
C1867      C2820   1.406       .  A
C1868      C3767   1.407       .  A
C1868      C2819   1.406       .  A
C1868      N1869   1.439   1_655  S
N1869      H1873   1.046       .  S
N1869      H1874   1.045       .  S
N1872      H1876   1.045       .  S
C1877      C1878   1.409       .  A
C1877      C1882   1.405       .  A
C1877      H1884   1.083       .  S
C1878      C1879   1.431       .  A
C1879      C1880   1.424       .  A
C1879      N1886   1.439       .  S
C1880      C1881   1.421       .  A
C1880      H1885   1.083       .  S
C1881      C1882   1.432       .  A
C1882      N1883   1.432       .  S
N1883      H1887   1.046       .  S
N1883      H1888   1.046       .  S
N1886      H1889   1.037       .  S
N1886      H1890   1.046       .  S
C1891      C1892   1.411       .  A
C1891      C1896   1.381       .  A
C1891      H1898   1.082       .  S
C1892      C1893   1.421       .  A
C1893      C3798   1.413       .  A
C1893      N1900   1.432       .  S
C1894      C3797   1.413       .  A
C1894      C3799   1.408       .  A
C1894      H1899   1.083       .  S
C1895      C3111   1.483       .  S
C1895      C3798   1.408       .  A
C1895      C1896   1.415       .  A
C1896      N1897   1.433   1_556  S
N1897      H1901   1.044       .  S
N1897      H1902   1.045       .  S
N1900      H1903   1.045       .  S
N1900      H3808   1.046       .  S
H1904      N3804   1.046       .  S
C1905      C2802   1.588       .  S
C1905      C2816   1.568       .  S
C1905      C2833   1.594       .  S
C1905      C2844   1.565       .  S
O1906     Zr1918   2.345       .  S
O1906      C1908   1.269       .  A
O1907     Zr1944   2.464       .  S
O1907      C1908   1.299       .  A
C1908      C3052   1.442       .  S
O1909     Zr1921   2.429       .  S
O1909      C1911   1.289       .  A
O1910     Zr1945   2.364       .  S
O1910      C1911   1.273       .  A
C1911      C3202   1.411       .  S
O1912     Zr1921   2.464       .  S
O1912      C1914   1.294       .  A
O1913     Zr1944   2.444       .  S
O1913      C1914   1.290       .  A
C1914      C2788   1.504       .  S
O1915     Zr1918   2.427       .  S
O1915      C1917   1.285       .  A
O1916     Zr1945   2.410       .  S
O1916      C1917   1.283       .  A
C1917      C2760   1.459       .  S
Zr1918     O1924   2.382       .  S
Zr1918     O1925   2.323       .  S
Zr1918     O1948   2.331       .  S
Zr1918     O1950   2.378       .  S
Zr1918     O2871   2.435       .  S
O1919     Zr2870   2.435   1_545  S
O1919      H1962   0.990       .  S
O1920      H1961   0.990       .  S
O1920      H1965   0.990       .  S
Zr1921     O1925   2.371       .  S
Zr1921     O1924   2.359       .  S
Zr1921     O1949   2.341       .  S
Zr1921     O1951   2.378       .  S
Zr1921     O2874   2.429       .  S
Zr1921     O1923   2.436       .  S
O1922     Zr2873   2.429   1_545  S
O1922      H1963   0.989       .  S
O1922      H1966   0.990       .  S
O1923      H1956   0.990       .  S
O1924     Zr1944   2.393       .  S
O1925     Zr1945   2.399       .  S
O1925      H1952   0.965       .  S
O1926     Zr1938   2.350       .  S
O1926      C1928   1.270       .  A
O1927     Zr1945   2.405       .  S
O1927      C1928   1.286       .  A
O1929     Zr1941   2.343       .  S
O1929      C1931   1.269       .  A
O1930     Zr1944   2.464       .  S
O1930      C1931   1.299       .  A
C1931      C2350   1.440       .  S
O1932     Zr1941   2.429       .  S
O1932      C1934   1.284       .  A
O1933     Zr1945   2.489       .  S
O1933      C1934   1.297       .  A
C1934      C2749   1.518       .  S
O1935     Zr1938   2.411       .  S
O1935      C1937   1.281       .  A
O1936     Zr1944   2.476       .  S
O1936      C1937   1.296       .  A
C1937      C2774   1.494       .  S
Zr1938     O1946   2.388       .  S
Zr1938     O1947   2.338       .  S
Zr1938     O1950   2.330       .  S
Zr1938     O1948   2.361       .  S
Zr1938     O1939   2.401       .  S
O1939      H1959   0.989       .  S
O1939      H1964   0.990       .  S
O1940      H1960   0.990       .  S
Zr1941     O1947   2.392       .  S
Zr1941     O1946   2.352       .  S
Zr1941     O1951   2.339       .  S
Zr1941     O1949   2.379       .  S
Zr1941     O1942   2.433       .  S
Zr1941     O1943   2.434       .  S
O1942      H1958   0.990       .  S
O1943      H1957   0.990       .  S
O1943      H1967   0.990       .  S
Zr1944     O1947   2.381       .  S
Zr1944     O1949   2.393       .  S
Zr1944     O1950   2.374       .  S
Zr1945     O1946   2.373       .  S
Zr1945     O1948   2.366       .  S
Zr1945     O1951   2.378       .  S
O1946      H1954   0.966       .  S
O1949      H1953   0.966       .  S
O1950      H1955   0.966       .  S
O1968     Zr1980   2.322       .  S
O1968      C1970   1.266       .  A
O1969     Zr2006   2.367       .  S
O1969      C1970   1.279       .  A
O1971     Zr1983   2.356       .  S
O1971      C1973   1.272       .  A
O1972     Zr2007   2.416       .  S
O1972      C1973   1.288       .  A
C1973      C2347   1.431       .  S
O1974     Zr1983   2.424       .  S
O1974      C1976   1.284       .  A
O1975     Zr2006   2.428   1_554  S
O1975      C1976   1.284   1_554  A
C1976      C2718   1.474   1_556  S
O1977     Zr1980   2.409       .  S
O1977      C1979   1.280       .  A
O1978     Zr2007   2.456       .  S
O1978      C1979   1.291       .  A
C1979      C2735   1.481       .  S
Zr1980     O1986   2.388       .  S
Zr1980     O1987   2.344       .  S
Zr1980     O2010   2.321       .  S
Zr1980     O2012   2.375       .  S
Zr1980     O1981   2.434       .  S
O1981      H2024   0.990       .  S
O1982      H2023   0.990       .  S
O1982      H2027   0.990       .  S
Zr1983     O1987   2.394       .  S
Zr1983     O1986   2.343       .  S
Zr1983     O2011   2.351       .  S
Zr1983     O2013   2.374       .  S
Zr1983     O1984   2.434       .  S
Zr1983     O1985   2.436       .  S
O1984      H2025   0.990       .  S
O1984      H2028   0.990       .  S
O1985      H2018   0.990       .  S
O1986     Zr2006   2.370       .  S
O1987     Zr2007   2.375       .  S
O1987      H2014   0.966       .  S
O1988     Zr2000   2.311       .  S
O1988      C1990   1.265       .  A
O1989     Zr2007   2.392       .  S
O1989      C1990   1.284       .  A
O1991     Zr2003   2.442       .  S
O1991      C1993   1.287       .  A
O1992     Zr2006   2.365       .  S
O1992      C1993   1.274       .  A
C1993      C2227   1.414   1_556  S
O1994     Zr2003   2.476       .  S
O1994      C1996   1.295       .  A
O1995     Zr2007   2.419       .  S
O1995      C1996   1.284       .  A
C1996      C2693   1.510       .  S
O1997     Zr2000   2.406       .  S
O1997      C1999   1.281       .  A
O1998     Zr2006   2.400       .  S
O1998      C1999   1.280       .  A
C1999      C2704   1.448   1_556  S
Zr2000     O2008   2.388       .  S
Zr2000     O2009   2.312       .  S
Zr2000     O2012   2.329       .  S
Zr2000     O2010   2.368       .  S
Zr2000     O2001   2.437       .  S
O2001      H2021   0.990       .  S
O2001      H2026   0.990       .  S
O2002      H2022   0.990       .  S
Zr2003     O2009   2.362       .  S
Zr2003     O2008   2.350       .  S
Zr2003     O2013   2.348       .  S
Zr2003     O2011   2.374       .  S
Zr2003     O2004   2.434       .  S
Zr2003     O2005   2.429       .  S
O2004      H2020   0.990       .  S
O2005      H2019   0.990       .  S
O2005      H2029   0.990       .  S
Zr2006     O2009   2.372       .  S
Zr2006     O2011   2.379       .  S
Zr2006     O2012   2.370       .  S
Zr2007     O2008   2.398       .  S
Zr2007     O2010   2.360       .  S
Zr2007     O2013   2.375       .  S
O2008      H2016   0.966       .  S
O2011      H2015   0.966       .  S
O2012      H2017   0.966       .  S
O2030     Zr2042   2.297       .  S
O2030      C2032   1.259       .  A
O2031     Zr2068   2.542       .  S
O2031      C2032   1.316       .  A
C2032      C3182   1.456       .  S
O2033     Zr2045   2.367       .  S
O2033      C2035   1.275       .  A
O2034     Zr2069   2.406       .  S
O2034      C2035   1.283       .  A
C2035      C2165   1.418       .  S
O2036     Zr2045   2.428       .  S
O2036      C2038   1.285       .  A
O2037     Zr2068   2.504       .  S
O2037      C2038   1.303       .  A
C2038      C2662   1.504       .  S
O2039     Zr2042   2.375       .  S
O2039      C2041   1.272       .  A
O2040     Zr2069   2.524       .  S
O2040      C2041   1.303       .  A
C2041      C2648   1.502       .  S
Zr2042     O2048   2.351       .  S
Zr2042     O2049   2.330       .  S
Zr2042     O2072   2.330       .  S
Zr2042     O2074   2.369       .  S
Zr2042     O2043   2.436       .  S
Zr2042     O2996   2.419       .  S
O2043      H2086   0.990   1_556  S
O2044     Zr2994   2.419   1_545  S
O2044      H2085   0.990       .  S
O2044      H2089   0.989       .  S
Zr2045     O2049   2.375       .  S
Zr2045     O2048   2.332       .  S
Zr2045     O2073   2.342       .  S
Zr2045     O2075   2.373       .  S
Zr2045     O2046   2.435   1_556  S
Zr2045     O2047   2.435       .  S
O2046      H2087   0.990       .  S
O2046      H2090   0.989       .  S
O2047      H2080   0.990       .  S
O2048     Zr2068   2.352       .  S
O2049     Zr2069   2.392       .  S
O2049      H2076   0.965       .  S
O2050     Zr2062   2.360       .  S
O2050      C2052   1.273       .  A
O2051     Zr2069   2.434       .  S
O2051      C2052   1.289       .  A
C2052      C3072   1.428       .  S
O2053     Zr2065   2.362       .  S
O2053      C2055   1.273       .  A
O2054     Zr2068   2.472       .  S
O2054      C2055   1.297       .  A
C2055      C2370   1.445       .  S
O2056     Zr2065   2.420       .  S
O2056      C2058   1.284       .  A
O2057     Zr2069   2.508       .  S
O2057      C2058   1.303       .  A
C2058      C2634   1.511       .  S
O2059     Zr2062   2.376       .  S
O2059      C2061   1.275       .  A
O2060     Zr2068   2.538       .  S
O2060      C2061   1.310       .  A
C2061      C2676   1.505       .  S
Zr2062     O2070   2.358       .  S
Zr2062     O2071   2.336       .  S
Zr2062     O2074   2.353       .  S
Zr2062     O2072   2.359       .  S
Zr2062     O2063   2.436       .  S
Zr2062     O3016   2.434       .  S
O2063      H2083   0.990       .  S
O2063      H2088   0.990       .  S
O2064     Zr3014   2.434   1_545  S
O2064      H2084   0.990       .  S
Zr2065     O2071   2.361       .  S
Zr2065     O2070   2.340       .  S
Zr2065     O2075   2.337       .  S
Zr2065     O2073   2.377       .  S
Zr2065     O2066   2.434       .  S
Zr2065     O2067   2.422       .  S
O2066      H2082   0.990       .  S
O2067      H2081   0.989       .  S
O2067      H2091   0.990       .  S
Zr2068     O2071   2.391       .  S
Zr2068     O2073   2.415       .  S
Zr2068     O2074   2.396       .  S
Zr2069     O2070   2.392       .  S
Zr2069     O2072   2.386       .  S
Zr2069     O2075   2.403       .  S
O2070      H2078   0.965       .  S
O2073      H2077   0.966       .  S
O2074      H2079   0.966       .  S
C2092      C2581   1.594       .  S
C2092      C2592   1.600       .  S
C2092      C2606   1.585       .  S
C2092      C2620   1.623       .  S
C2093      C2522   1.573       .  S
C2093      C2539   1.631       .  S
C2093      C2553   1.600       .  S
C2093      C2564   1.655       .  S
C2094      C2466   1.576       .  S
C2094      C2480   1.603       .  S
C2094      C2494   1.611       .  S
C2094      C2508   1.621       .  S
O2096     Zr2133   2.381       .  S
O2096      C2097   1.284       .  A
O2098      C2100   1.270       .  A
O2099     Zr2134   2.463       .  S
C2100      C2860   1.442       .  S
O2102     Zr2133   2.423       .  S
O2102      C2103   1.284       .  A
O2105     Zr2134   2.484       .  S
O2105      C2106   1.299       .  A
Zr2107     O2113   2.377       .  S
Zr2107     O2114   2.332       .  S
Zr2107     O2137   2.345       .  S
Zr2107     O2139   2.389       .  S
Zr2107     O2109   2.435       .  S
O2108      H2151   0.990       .  S
O2109      H2150   0.990       .  S
Zr2110     O2114   2.376       .  S
Zr2110     O2113   2.324       .  S
Zr2110     O2138   2.329       .  S
Zr2110     O2140   2.400       .  S
Zr2110     O3064   2.422   1_545  S
O2111      H2152   0.990       .  S
O2111      H2155   0.990   1_545  S
O2112     Zr3062   2.422       .  S
O2112      H2145   0.990       .  S
O2113     Zr2133   2.369       .  S
O2114     Zr2134   2.380       .  S
O2115     Zr2127   2.377       .  S
O2115      C2117   1.276       .  A
O2116     Zr2134   2.454       .  S
O2116      C2117   1.297       .  A
C2117      C2291   1.452       .  S
O2118     Zr2130   2.421   1_565  S
O2118      C2120   1.287       .  A
O2119     Zr2133   2.390       .  S
O2119      C2120   1.277   1_545  A
C2120      C3004   1.428       .  S
O2121     Zr2130   2.457   1_565  S
O2121      C2123   1.291       .  A
O2122     Zr2134   2.465       .  S
O2122      C2123   1.295   1_545  A
C2123      C3502   1.495       .  S
O2124     Zr2127   2.428       .  S
O2124      C2126   1.285       .  A
O2125     Zr2133   2.449       .  S
O2125      C2126   1.290       .  A
C2126      C2578   1.494       .  S
Zr2127     O2135   2.368       .  S
Zr2127     O2136   2.349       .  S
Zr2127     O2139   2.342       .  S
Zr2127     O2137   2.393       .  S
Zr2127     O2128   2.439       .  S
Zr2127     O2129   2.425       .  S
O2128      H2148   0.990       .  S
O2128      H2153   0.990       .  S
O2129      H2149   0.989       .  S
Zr2130     O2136   2.375       .  S
Zr2130     O2135   2.347       .  S
Zr2130     O2140   2.361       .  S
Zr2130     O2138   2.369       .  S
Zr2130     O2131   2.432       .  S
Zr2130     O3084   2.434   1_545  S
O2131      H2147   0.990       .  S
O2132     Zr3082   2.434       .  S
O2132      H2146   0.990       .  S
O2132      H2156   0.990       .  S
Zr2133     O2136   2.373       .  S
Zr2133     O2138   2.374       .  S
Zr2133     O2139   2.381       .  S
Zr2134     O2135   2.387       .  S
Zr2134     O2137   2.387       .  S
Zr2134     O2140   2.400       .  S
O2135      H2143   0.965       .  S
O2138      H3094   0.965   1_545  S
O2139      H2144   0.966       .  S
H2142      O3090   0.965       .  S
O2158     Zr2195   2.421   1_556  S
O2158      C2159   1.284       .  A
O2160     Zr2172   2.466       .  S
O2160      C2162   1.292       .  A
O2161     Zr2196   2.410       .  S
O2161      C2162   1.285       .  A
C2162      C2525   1.478       .  S
O2163     Zr2172   2.419       .  S
O2163      C2165   1.287   1_554  A
O2164     Zr2195   2.361   1_556  S
O2164      C2165   1.272       .  A
O2167     Zr2196   2.407       .  S
O2167      C2168   1.285       .  A
Zr2169     O2175   2.339       .  S
Zr2169     O2176   2.387       .  S
Zr2169     O2199   2.370       .  S
Zr2169     O2201   2.324       .  S
Zr2169     O2170   2.434       .  S
O2170      H2213   0.990       .  S
O2171      H2212   0.989       .  S
O2171      H2216   0.990       .  S
Zr2172     O2176   2.348       .  S
Zr2172     O2175   2.371       .  S
Zr2172     O2200   2.374       .  S
Zr2172     O2202   2.347       .  S
Zr2172     O2173   2.432       .  S
Zr2172     O2174   2.432       .  S
O2173      H2214   0.989       .  S
O2173      H2217   0.990       .  S
O2174      H2207   0.989       .  S
O2175     Zr2195   2.388       .  S
O2176     Zr2196   2.397       .  S
O2176      H2203   0.966       .  S
O2178     Zr2196   2.464       .  S
O2178      C2179   1.292       .  A
O2180     Zr2192   2.421       .  S
O2180      C2182   1.283   1_554  A
O2181     Zr2195   2.454   1_556  S
O2181      C2182   1.286       .  A
C2182      C2595   1.493       .  S
O2183     Zr2192   2.363       .  S
O2183      C2185   1.273       .  A
O2184     Zr2196   2.424       .  S
O2184      C2185   1.290       .  A
C2185      C2294   1.437       .  S
O2187     Zr2195   2.372   1_556  S
O2187      C2188   1.281       .  A
Zr2189     O2197   2.338       .  S
Zr2189     O2198   2.374       .  S
Zr2189     O2201   2.370       .  S
Zr2189     O2199   2.327       .  S
Zr2189     O2190   2.433       .  S
O2190      H2210   0.990       .  S
O2191      H2211   0.990       .  S
Zr2192     O2198   2.345       .  S
Zr2192     O2197   2.377       .  S
Zr2192     O2202   2.366       .  S
Zr2192     O2200   2.346       .  S
Zr2192     O2193   2.433       .  S
Zr2192     O2194   2.435       .  S
O2193      H2209   0.990       .  S
O2194      H2208   0.990       .  S
O2194      H2218   0.990       .  S
Zr2195     O2198   2.375       .  S
Zr2195     O2200   2.387       .  S
Zr2195     O2201   2.374       .  S
Zr2196     O2197   2.373       .  S
Zr2196     O2199   2.367       .  S
Zr2196     O2202   2.371       .  S
O2197      H2205   0.966       .  S
O2200      H2204   0.966       .  S
O2219     Zr3183   2.339       .  S
O2219      C3173   1.252       .  A
O2220     Zr2257   2.519       .  S
O2220      C2221   1.274       .  A
C2221      O3171   1.251       .  A
C2221      C3757   1.513   1_544  S
O2222     Zr2234   2.389       .  S
O2222      C2224   1.275       .  A
O2223     Zr2258   2.524       .  S
O2223      C2224   1.308       .  A
C2224      C2609   1.509   1_554  S
O2225     Zr2234   2.367       .  S
O2225      C2227   1.273       .  A
O2226     Zr2257   2.407       .  S
O2226      C2227   1.281       .  A
O2228     Zr3183   2.301   1_556  S
O2228      C3182   1.261       .  A
O2229     Zr2258   2.550       .  S
O2229      C2230   1.320   1_544  A
C2230      O3180   1.261       .  A
C2230      C2984   1.456       .  S
Zr2231     O3171   2.339       .  S
Zr2231     O3180   2.301   1_544  S
Zr2231     O2237   2.349       .  S
Zr2231     O2238   2.365       .  S
Zr2231     O2261   2.382   1_545  S
Zr2231     O2263   2.355       .  S
Zr2231     O2232   2.437   1_554  S
Zr2231     O3185   2.432   1_545  S
O2232      H2275   0.990       .  S
O2233     Zr3183   2.436       .  S
O2233      H2274   0.990       .  S
O2233      H2278   0.990       .  S
Zr2234     O2238   2.340       .  S
Zr2234     O2237   2.354       .  S
Zr2234     O2262   2.364       .  S
Zr2234     O2264   2.353       .  S
Zr2234     O2235   2.437   1_554  S
Zr2234     O2236   2.436       .  S
O2235      H2276   0.990       .  S
O2235      H2279   0.989       .  S
O2236      H2269   0.990       .  S
O2237     Zr2257   2.401       .  S
O2238     Zr2258   2.391       .  S
O2238      H2265   0.964       .  S
O2239     Zr3203   2.394       .  S
O2239      C3193   1.277       .  A
O2240     Zr2258   2.586       .  S
O2240      C2241   1.320   1_545  A
C2241      O3191   1.276       .  A
C2241      C3488   1.545       .  S
O2242     Zr2254   2.412       .  S
O2242      C2244   1.282       .  A
O2243     Zr2257   2.478       .  S
O2243      C2244   1.296       .  A
C2244      C2469   1.485       .  S
O2245     Zr2254   2.387       .  S
O2245      C2247   1.278       .  A
O2246     Zr2258   2.503       .  S
O2246      C2247   1.303       .  A
C2247      C2311   1.471       .  S
O2248     Zr3203   2.341       .  S
O2248      C3202   1.268       .  A
O2249     Zr2257   2.414       .  S
O2249      C2250   1.284   1_545  A
C2250      O3200   1.268       .  A
C2250      C2863   1.411       .  S
Zr2251     O3191   2.393   1_545  S
Zr2251     O3200   2.341   1_545  S
Zr2251     O2259   2.333       .  S
Zr2251     O2260   2.363       .  S
Zr2251     O2263   2.362       .  S
Zr2251     O2261   2.361   1_545  S
Zr2251     O2252   2.435       .  S
Zr2251     O3205   2.434   1_545  S
O2252      H2272   0.989       .  S
O2252      H3229   0.989   1_545  S
O2253     Zr3203   2.434       .  S
O2253      H2273   0.990       .  S
Zr2254     O2260   2.350       .  S
Zr2254     O2259   2.363       .  S
Zr2254     O2264   2.365       .  S
Zr2254     O2262   2.355       .  S
Zr2254     O2255   2.435       .  S
Zr2254     O2256   2.433       .  S
O2255      H2271   0.990       .  S
O2256      H2270   0.990       .  S
O2256      H2280   0.990       .  S
Zr2257     O2260   2.386       .  S
Zr2257     O2262   2.410       .  S
Zr2257     O2263   2.435       .  S
Zr2258     O2259   2.390       .  S
Zr2258     O2261   2.402   1_545  S
Zr2258     O2264   2.416       .  S
O2259      H2267   0.964       .  S
O2262      H2266   0.966       .  S
O2263      H3220   0.967   1_545  S
H2268      O3215   0.967       .  S
H2277      O3204   0.989       .  S
C2281      C2452   1.601       .  S
C2281      C2665   1.585       .  S
C2281      C2721   1.575       .  S
C2281      C2746   1.589       .  S
C2282      C2438   1.633       .  S
C2282      C2637   1.615       .  S
C2282      C2732   1.599       .  S
C2282      C2777   1.565       .  S
O2283     Zr2295   2.439       .  S
O2283      C2285   1.286       .  A
O2284     Zr2321   2.507       .  S
O2284      C2285   1.302       .  A
C2285      C2441   1.522       .  S
O2286     Zr2298   2.419       .  S
O2286      C2288   1.284       .  A
O2287     Zr2322   2.475       .  S
O2287      C2288   1.294       .  A
C2288      C2413   1.513       .  S
O2289     Zr2298   2.371       .  S
O2289      C2291   1.275       .  A
O2290     Zr2321   2.455       .  S
O2290      C2291   1.296       .  A
O2292     Zr2295   2.360       .  S
O2292      C2294   1.273       .  A
O2293     Zr2322   2.436       .  S
O2293      C2294   1.292       .  A
Zr2295     O2301   2.340       .  S
Zr2295     O2302   2.384       .  S
Zr2295     O2325   2.392       .  S
Zr2295     O2327   2.350       .  S
Zr2295     O2296   2.436       .  S
Zr2295     O2297   2.435       .  S
O2296      H2339   0.990       .  S
O2297      H2338   0.990       .  S
O2297      H2342   0.990       .  S
Zr2298     O2302   2.343       .  S
Zr2298     O2301   2.375       .  S
Zr2298     O2326   2.386       .  S
Zr2298     O2328   2.344       .  S
Zr2298     O2299   2.439       .  S
Zr2298     O2300   2.428       .  S
O2299      H2340   0.990       .  S
O2299      H2343   0.990       .  S
O2300      H2333   0.990       .  S
O2301     Zr2321   2.373       .  S
O2302     Zr2322   2.391       .  S
O2302      H2329   0.966       .  S
O2303     Zr2315   2.448       .  S
O2303      C2305   1.289       .  A
O2304     Zr2322   2.491       .  S
O2304      C2305   1.298       .  A
C2305      C2455   1.513       .  S
O2306     Zr2318   2.523       .  S
O2306      C2308   1.304       .  A
O2307     Zr2321   2.467       .  S
O2307      C2308   1.295       .  A
C2308      C2427   1.526       .  S
O2309     Zr2318   2.467       .  S
O2309      C2311   1.296       .  A
O2310     Zr2322   2.437       .  S
O2310      C2311   1.288       .  A
O2312     Zr2315   2.388       .  S
O2312      C2314   1.278       .  A
O2313     Zr2321   2.456       .  S
O2313      C2314   1.297       .  A
C2314      C2367   1.459       .  S
Zr2315     O2323   2.358       .  S
Zr2315     O2324   2.378       .  S
Zr2315     O2327   2.391       .  S
Zr2315     O2325   2.356       .  S
Zr2315     O2316   2.437       .  S
Zr2315     O2317   2.435       .  S
O2316      H2336   0.990       .  S
O2316      H2341   0.990       .  S
O2317      H2337   0.990       .  S
Zr2318     O2324   2.356       .  S
Zr2318     O2323   2.392       .  S
Zr2318     O2328   2.383       .  S
Zr2318     O2326   2.367       .  S
Zr2318     O2319   2.435       .  S
Zr2318     O2320   2.435       .  S
O2319      H2335   0.990       .  S
O2320      H2334   0.990       .  S
O2320      H2344   0.990       .  S
Zr2321     O2324   2.391       .  S
Zr2321     O2326   2.406       .  S
Zr2321     O2327   2.389       .  S
Zr2322     O2323   2.402       .  S
Zr2322     O2325   2.392       .  S
Zr2322     O2328   2.396       .  S
O2323      H2331   0.966       .  S
O2326      H2330   0.966       .  S
O2327      H2332   0.966       .  S
O2345     Zr2357   2.365       .  S
O2345      C2347   1.273       .  A
O2346     Zr2383   2.416       .  S
O2346      C2347   1.289       .  A
O2348     Zr2360   2.345       .  S
O2348      C2350   1.269       .  A
O2349     Zr2384   2.462       .  S
O2349      C2350   1.299       .  A
O2351     Zr2360   2.443       .  S
O2351      C2353   1.289       .  A
O2352     Zr2383   2.481       .  S
O2352      C2353   1.294       .  A
C2353      C2830   1.531       .  S
O2354     Zr2357   2.442       .  S
O2354      C2356   1.287       .  A
O2355     Zr2384   2.516       .  S
O2355      C2356   1.304       .  A
C2356      C2511   1.520       .  S
Zr2357     O2363   2.385       .  S
Zr2357     O2364   2.338       .  S
Zr2357     O2387   2.354       .  S
Zr2357     O2389   2.390       .  S
Zr2357     O2358   2.436       .  S
Zr2357     O2359   2.432       .  S
O2358      H2401   0.990       .  S
O2359      H2400   0.990       .  S
O2359      H2404   0.990       .  S
Zr2360     O2364   2.380       .  S
Zr2360     O2363   2.339       .  S
Zr2360     O2388   2.326       .  S
Zr2360     O2390   2.397       .  S
Zr2360     O2361   2.438       .  S
Zr2360     O2362   2.433       .  S
O2361      H2402   0.990       .  S
O2361      H2405   0.990       .  S
O2362      H2395   0.990       .  S
O2363     Zr2383   2.379       .  S
O2364     Zr2384   2.388       .  S
O2364      H2391   0.965       .  S
O2365     Zr2377   2.392       .  S
O2365      C2367   1.278       .  A
O2366     Zr2384   2.459       .  S
O2366      C2367   1.297       .  A
O2368     Zr2380   2.447       .  S
O2368      C2370   1.293       .  A
O2369     Zr2383   2.411       .  S
O2369      C2370   1.283       .  A
O2371     Zr2380   2.525       .  S
O2371      C2373   1.304       .  A
O2372     Zr2384   2.504       .  S
O2372      C2373   1.303       .  A
C2373      C2567   1.549       .  S
O2374     Zr2377   2.459       .  S
O2374      C2376   1.290       .  A
O2375     Zr2383   2.489       .  S
O2375      C2376   1.298       .  A
C2376      C2623   1.510       .  S
Zr2377     O2385   2.387       .  S
Zr2377     O2386   2.357       .  S
Zr2377     O2389   2.352       .  S
Zr2377     O2387   2.396       .  S
Zr2377     O2378   2.437       .  S
Zr2377     O2379   2.432       .  S
O2378      H2398   0.990       .  S
O2378      H2403   0.990       .  S
O2379      H2399   0.989       .  S
Zr2380     O2386   2.395       .  S
Zr2380     O2385   2.350       .  S
Zr2380     O2390   2.361       .  S
Zr2380     O2388   2.389       .  S
Zr2380     O2381   2.435       .  S
Zr2380     O2382   2.431       .  S
O2381      H2397   0.990       .  S
O2382      H2396   0.990       .  S
O2382      H2406   0.990       .  S
Zr2383     O2386   2.398       .  S
Zr2383     O2388   2.394       .  S
Zr2383     O2389   2.391       .  S
Zr2384     O2385   2.398       .  S
Zr2384     O2387   2.395       .  S
Zr2384     O2390   2.398       .  S
O2385      H2393   0.966       .  S
O2388      H2392   0.965       .  S
O2389      H2394   0.966       .  S
C2407      C2424   1.628       .  S
C2407      C2679   1.598       .  S
C2407      C2690   1.621       .  S
C2407      C2791   1.598       .  S
C2408      C2410   1.621       .  S
C2408      C2651   1.565       .  S
C2408      C2707   1.585       .  S
C2408      C2763   1.567       .  S
C2409      C2410   1.428       .  A
C2409      C2414   1.423       .  A
C2409      H2416   1.061       .  S
C2410      C2411   1.441       .  A
C2411      C2412   1.401       .  A
C2411      N2418   1.433       .  S
C2412      C2413   1.402       .  A
C2412      H2417   1.083       .  S
C2413      C2414   1.408       .  A
C2414      N2415   1.438       .  S
N2415      H2419   1.046       .  S
N2415      H2420   1.046       .  S
N2418      H2421   1.047       .  S
N2418      H2422   1.046       .  S
C2423      C2424   1.431       .  A
C2423      C2428   1.424       .  A
C2423      H2430   1.082       .  S
C2424      C2425   1.436       .  A
C2425      C2426   1.431       .  A
C2425      N2432   1.430       .  S
C2426      C2427   1.406       .  A
C2426      H2431   1.084       .  S
C2427      C2428   1.418       .  A
C2428      N2429   1.438       .  S
N2429      H2433   1.046       .  S
N2429      H2434   1.044       .  S
N2432      H2435   1.046       .  S
N2432      H2436   1.044       .  S
C2437      C2438   1.433       .  A
C2437      C2442   1.422       .  A
C2437      H2444   1.068       .  S
C2438      C2439   1.450       .  A
C2439      C2440   1.417       .  A
C2439      N2446   1.436       .  S
C2440      C2441   1.401       .  A
C2440      H2445   1.084       .  S
C2441      C2442   1.408       .  A
C2442      N2443   1.429       .  S
N2443      H2447   1.045       .  S
N2443      H2448   1.046       .  S
N2446      H2449   1.046       .  S
N2446      H2450   1.046       .  S
C2451      C2452   1.421       .  A
C2451      C2456   1.410       .  A
C2451      H2458   1.083       .  S
C2452      C2453   1.448       .  A
C2453      C2454   1.422       .  A
C2453      N2460   1.434       .  S
C2454      C2455   1.404       .  A
C2454      H2459   1.084       .  S
C2455      C2456   1.411       .  A
C2456      N2457   1.438       .  S
N2457      H2461   1.046       .  S
N2457      H2462   1.045       .  S
N2460      H2463   1.039       .  S
N2460      H2464   1.039       .  S
C2465      C2466   1.418       .  A
C2465      C2470   1.408       .  A
C2465      H2472   1.080       .  S
C2466      C2467   1.435       .  A
C2467      C2468   1.409       .  A
C2467      N2474   1.441       .  S
C2468      C2469   1.400       .  A
C2468      H2473   1.084       .  S
C2469      C2470   1.413       .  A
C2470      N2471   1.437       .  S
N2471      H2475   1.045       .  S
N2471      H2476   1.042       .  S
N2474      H2477   1.042       .  S
N2474      H2478   1.046       .  S
C2479      C2480   1.421       .  A
C2479      C2484   1.393       .  A
C2479      H2486   1.078       .  S
C2480      C2481   1.435       .  A
C2481      C2482   1.421       .  A
C2481      N2488   1.423       .  S
C2482      C2483   1.394       .  A
C2482      H2487   1.075       .  S
C2483      C2484   1.400       .  A
N2485      H2489   1.046       .  S
N2485      H2490   1.046       .  S
N2488      H2491   1.044       .  S
N2488      H2492   1.045       .  S
C2493      C2494   1.418       .  A
C2493      C2498   1.408       .  A
C2493      H2500   1.081       .  S
C2494      C2495   1.449       .  A
C2496      H2501   1.084       .  S
C2497      C2498   1.413       .  A
C2498      N2499   1.432       .  S
N2499      H2503   1.046       .  S
N2499      H2504   1.046       .  S
N2502      H2506   1.046       .  S
C2507      C2508   1.422       .  A
C2507      C2512   1.416       .  A
C2507      H2514   1.084       .  S
C2508      C2509   1.447       .  A
C2509      C2510   1.426       .  A
C2509      N2516   1.431       .  S
C2510      C2511   1.401       .  A
C2510      H2515   1.084       .  S
C2511      C2512   1.414       .  A
C2512      N2513   1.432       .  S
N2513      H2517   1.046       .  S
N2513      H2518   1.046       .  S
N2516      H2519   1.046       .  S
N2516      H2520   1.046       .  S
C2521      C2522   1.417       .  A
C2521      C2526   1.411       .  A
C2521      H2528   1.083       .  S
C2522      C2523   1.445       .  A
C2523      C2524   1.400       .  A
C2523      N2530   1.436       .  S
C2524      C2525   1.391       .  A
C2524      H2529   1.085       .  S
C2525      C2526   1.407       .  A
C2526      N2527   1.437       .  S
N2527      H2531   1.046       .  S
N2527      H2532   1.045       .  S
N2530      H2533   1.045       .  S
N2530      H2534   1.045       .  S
C2535      C2536   1.400       .  A
C2535      C2540   1.433       .  A
C2535      H3494   1.083       .  S
C2536      C3193   1.546       .  S
C2536      C2537   1.439       .  A
C2537      C2538   1.419       .  A
C2537      N2544   1.434       .  S
C2538      C2539   1.400       .  A
C2538      H2543   1.080       .  S
C2539      C2540   1.450       .  A
C2540      N2541   1.429       .  S
N2541      H3497   1.046       .  S
N2541      H2546   1.046       .  S
H2542      C3487   1.083       .  S
N2544      H2547   1.046       .  S
N2544      H2548   1.046       .  S
H2545      N3493   1.046       .  S
C2549      C2550   1.385       .  A
C2549      C2554   1.402       .  A
C2549      H2556   1.086       .  S
C2550      C3075   1.494       .  S
C2550      C3503   1.417       .  A
C2551      C3502   1.417       .  A
C2551      C3504   1.423       .  A
C2551      N2558   1.437   1_565  S
C2552      C3503   1.422       .  A
C2552      C2553   1.425       .  A
C2552      H3509   1.080       .  S
C2553      C2554   1.442       .  A
C2554      N2555   1.423       .  S
N2555      H2559   1.045       .  S
N2555      H2560   1.047       .  S
H2557      C3504   1.080       .  S
N2558      H2561   1.044       .  S
N2558      H2562   1.041       .  S
C2563      C2564   1.431       .  A
C2563      C2568   1.434       .  A
C2563      H2570   1.074       .  S
C2564      C2565   1.435       .  A
C2565      C2566   1.434       .  A
C2565      N2572   1.435       .  S
C2566      C2567   1.408       .  A
C2566      H2571   1.084       .  S
C2567      C2568   1.427       .  A
C2568      N2569   1.437       .  S
N2569      H2573   1.046       .  S
N2569      H2574   1.042       .  S
N2572      H2575   1.046       .  S
N2572      H2576   1.045       .  S
C2577      C2578   1.398       .  A
C2577      C2582   1.412       .  A
C2577      H2584   1.084       .  S
C2578      C2579   1.414       .  A
C2579      C2580   1.402       .  A
C2579      N2586   1.441       .  S
C2580      C2581   1.415       .  A
C2580      H2585   1.069       .  S
C2581      C2582   1.445       .  A
C2582      N2583   1.435       .  S
N2583      H2587   1.046       .  S
N2583      H2588   1.045       .  S
N2586      H2589   1.044       .  S
N2586      H2590   1.046       .  S
C2591      C2592   1.434       .  A
C2591      C2596   1.423       .  A
C2591      H2598   1.083       .  S
C2592      C2593   1.440       .  A
C2593      C2594   1.389       .  A
C2593      N2600   1.428       .  S
C2594      C2595   1.391       .  A
C2594      H2599   1.083   1_556  S
C2595      C2596   1.407       .  A
C2596      N2597   1.436       .  S
N2597      H2601   1.046       .  S
N2597      H2602   1.045       .  S
N2600      H2603   1.046       .  S
N2600      H2604   1.046       .  S
C2605      C2606   1.416       .  A
C2605      C2610   1.401       .  A
C2605      H2612   1.083       .  S
C2606      C2607   1.434       .  A
C2607      C2608   1.419       .  A
C2607      N2614   1.425       .  S
C2608      C2609   1.398       .  A
C2608      H2613   1.080       .  S
C2609      C2610   1.427       .  A
C2610      N2611   1.434       .  S
N2611      H2615   1.043       .  S
N2611      H2616   1.046   1_556  S
N2614      H2617   1.046       .  S
N2614      H2618   1.042       .  S
C2619      C2620   1.425       .  A
C2619      C2624   1.414       .  A
C2619      H2626   1.070       .  S
C2620      C2621   1.456       .  A
C2621      C2622   1.420       .  A
C2621      N2628   1.440       .  S
C2622      C2623   1.399       .  A
C2622      H2627   1.084       .  S
C2623      C2624   1.409       .  A
C2624      N2625   1.434       .  S
N2625      H2629   1.046       .  S
N2625      H2630   1.043       .  S
N2628      H2631   1.038       .  S
N2628      H2632   1.045       .  S
C2633      C2634   1.404       .  A
C2633      C2638   1.410       .  A
C2633      H2640   1.085       .  S
C2634      C2635   1.414       .  A
C2635      C2636   1.421       .  A
C2635      N2642   1.438       .  S
C2636      C2637   1.438       .  A
C2636      H2641   1.080       .  S
C2637      C2638   1.425       .  A
C2638      N2639   1.420       .  S
N2639      H2643   1.046       .  S
N2639      H2644   1.046       .  S
N2642      H2645   1.041       .  S
N2642      H2646   1.046       .  S
C2647      C2648   1.396       .  A
C2647      C2652   1.415   1_556  A
C2647      H2654   1.083       .  S
C2648      C3601   1.425   1_556  A
C2649      C3600   1.425   1_544  A
C2649      C2650   1.396       .  A
C2649      N2656   1.429       .  S
C2650      C2651   1.397       .  A
C2650      H2655   1.080       .  S
C2651      C3604   1.435       .  A
C2652      C3603   1.435       .  A
C2652      N2653   1.429       .  S
N2653      H2657   1.046       .  S
N2653      H3610   1.046   1_554  S
N2656      H2659   1.046   1_545  S
N2656      H2660   1.046       .  S
H2658      N3605   1.046   1_556  S
C2661      C2662   1.407   1_554  A
C2661      C2666   1.413       .  A
C2661      H2668   1.084       .  S
C2662      C2663   1.408       .  A
C2663      C2664   1.421   1_556  A
C2663      N2670   1.438       .  S
C2664      C2665   1.429       .  A
C2664      H2669   1.077   1_554  S
C2665      C2666   1.422       .  A
C2666      N2667   1.433       .  S
N2667      H2671   1.045       .  S
N2667      H2672   1.045       .  S
N2670      H2673   1.045       .  S
N2670      H2674   1.046       .  S
C2675      C2676   1.403       .  A
C2675      C2680   1.425       .  A
C2675      H2682   1.084       .  S
C2676      C3629   1.415       .  A
C2677      C3628   1.415   1_545  A
C2677      C2678   1.409       .  A
C2677      N2684   1.433       .  S
C2678      C2679   1.419       .  A
C2678      H2683   1.083       .  S
C2679      C3632   1.438   1_545  A
C2680      C3631   1.438       .  A
C2680      N2681   1.429       .  S
N2681      H2685   1.044       .  S
N2681      H2686   1.046       .  S
N2684      H2687   1.045       .  S
N2684      H2688   1.046       .  S
C2689      C2690   1.430       .  A
C2689      C2694   1.398       .  A
C2689      H2696   1.063       .  S
C2690      C2691   1.448       .  A
C2691      C2692   1.423       .  A
C2691      N2698   1.440       .  S
C2692      C2693   1.410       .  A
C2692      H2697   1.084       .  S
C2693      C2694   1.403       .  A
C2694      N2695   1.442       .  S
N2695      H2699   1.045       .  S
N2695      H2700   1.046       .  S
N2698      H2701   1.040       .  S
N2698      H2702   1.046       .  S
C2703      C2708   1.396       .  A
C2703      H2710   1.085   1_554  S
C2704      C2705   1.391       .  A
C2705      C2706   1.394   1_655  A
C2705      N2712   1.440       .  S
C2706      H2711   1.075   1_455  S
C2707      C2708   1.430       .  A
C2708      N2709   1.429       .  S
N2709      H2713   1.047       .  S
N2709      H2714   1.046   1_554  S
N2712      H2715   1.045       .  S
N2712      H2716   1.046       .  S
C2717      C2718   1.397       .  A
C2717      C2722   1.396       .  A
C2717      H2724   1.085   1_554  S
C2718      C2719   1.404       .  A
C2719      C2720   1.410       .  A
C2719      N2726   1.437       .  S
C2720      C2721   1.424       .  A
C2720      H2725   1.079       .  S
C2721      C2722   1.421       .  A
C2722      N2723   1.428       .  S
N2723      H2727   1.046       .  S
N2723      H2728   1.046   1_554  S
N2726      H2729   1.045       .  S
N2726      H2730   1.046       .  S
C2731      C2732   1.417       .  A
C2731      C2736   1.406       .  A
C2731      H2738   1.083       .  S
C2733      C2734   1.403       .  A
C2733      N2740   1.432       .  S
C2734      C2735   1.387       .  A
C2734      H2739   1.085       .  S
C2736      N2737   1.439       .  S
N2737      H2741   1.046       .  S
N2737      H2742   1.044       .  S
N2740      H2743   1.046       .  S
N2740      H2744   1.046       .  S
C2745      C2746   1.411       .  A
C2745      C2750   1.408       .  A
C2745      H2752   1.080       .  S
C2746      C2747   1.431       .  A
C2747      C2748   1.420       .  A
C2747      N2754   1.433       .  S
C2748      C2749   1.407       .  A
C2748      H2753   1.083       .  S
C2749      C2750   1.423       .  A
C2750      N2751   1.438       .  S
N2751      H2755   1.046       .  S
N2751      H2756   1.046       .  S
N2754      H2757   1.045       .  S
N2754      H2758   1.046       .  S
C2759      C2760   1.395   1_455  A
C2759      H2766   1.084       .  S
C2760      C3713   1.399       .  A
C2761      C3712   1.399   1_545  A
C2761      C2762   1.396   1_655  A
C2761      N2768   1.439       .  S
C2762      H2767   1.084       .  S
C2763      C3716   1.429   1_545  A
C2764      C3715   1.429       .  A
C2764      N2765   1.431       .  S
N2765      H2769   1.044       .  S
N2765      H2770   1.045       .  S
N2768      H2771   1.046       .  S
N2768      H2772   1.046       .  S
C2773      C2774   1.403       .  A
C2773      C2778   1.407   1_655  A
C2773      H2780   1.084       .  S
C2774      C2775   1.407   1_655  A
C2775      N2782   1.433       .  S
C2776      C2777   1.416       .  A
C2776      H2781   1.080       .  S
C2778      N2779   1.441       .  S
N2779      H2783   1.046       .  S
N2782      H2785   1.046       .  S
C2787      C2788   1.396       .  A
C2787      C3744   1.403       .  A
C2787      H2794   1.085       .  S
C2788      C3741   1.414       .  A
C2789      C3740   1.414   1_545  A
C2789      C2790   1.413       .  A
C2789      N2796   1.431   1_545  S
C2790      C2791   1.430       .  A
C2790      H2795   1.082       .  S
C2791      C2792   1.434       .  A
C2792      C3739   1.403       .  A
C2792      N2793   1.423       .  S
N2793      H2797   1.046       .  S
N2793      H2798   1.046       .  S
N2796      H3751   1.045   1_565  S
N2796      H2800   1.045       .  S
H2799      N3748   1.045       .  S
C2801      C2802   1.433       .  A
C2801      C3758   1.416       .  A
C2801      H2808   1.082       .  S
C2802      C2803   1.419       .  A
C2803      C2804   1.409       .  A
C2803      N2810   1.436       .  S
C2804      C2805   1.413       .  A
C2804      H2809   1.076       .  S
C2805      C3173   1.496   1_556  S
C2805      C3758   1.401       .  A
C2806      C3753   1.416       .  A
C2806      C3757   1.407       .  A
C2806      N2807   1.437   1_565  S
N2807      H2811   1.044       .  S
N2807      H2812   1.046   1_546  S
N2810      H2813   1.043       .  S
N2810      H2814   1.046       .  S
C2815      C2816   1.417       .  A
C2815      H2822   1.076       .  S
C2816      C2817   1.425       .  A
C2817      C3770   1.403       .  A
C2817      N3776   1.430       .  S
C2818      C3769   1.403       .  A
C2818      C2819   1.397       .  A
C2818      H2823   1.084   1_565  S
C2820      N2821   1.439       .  S
N2821      H2825   1.046       .  S
N2821      H2826   1.045       .  S
N2824      C3769   1.430       .  S
N2824      H3779   1.045       .  S
N2824      H2828   1.045   1_565  S
H2827      N3776   1.045       .  S
C2829      C2830   1.409       .  A
C2829      C2834   1.405       .  A
C2829      H2836   1.083       .  S
C2830      C2831   1.431       .  A
C2831      C2832   1.424       .  A
C2831      N2838   1.439       .  S
C2832      C2833   1.421       .  A
C2832      H2837   1.083       .  S
C2833      C2834   1.432       .  A
C2834      N2835   1.432       .  S
N2835      H2839   1.046       .  S
N2835      H2840   1.046       .  S
N2838      H2841   1.037       .  S
N2838      H2842   1.046       .  S
C2843      C2844   1.411       .  A
C2843      C2848   1.381       .  A
C2843      H2850   1.082       .  S
C2844      C2845   1.421       .  A
C2845      N2852   1.432       .  S
C2846      H2851   1.083       .  S
C2847      C2848   1.415       .  A
C2848      N2849   1.433   1_556  S
N2849      H2853   1.044       .  S
N2849      H2854   1.045       .  S
N2852      H2855   1.045       .  S
C2857      C3754   1.588       .  S
C2857      C3768   1.568       .  S
C2857      C3785   1.594       .  S
C2857      C3796   1.565       .  S
O2858     Zr2870   2.345       .  S
O2858      C2860   1.269       .  A
O2859     Zr2896   2.464       .  S
O2859      C2860   1.299       .  A
O2861     Zr2873   2.429       .  S
O2861      C2863   1.289       .  A
O2862     Zr2897   2.364       .  S
O2862      C2863   1.273       .  A
O2864     Zr2873   2.464       .  S
O2864      C2866   1.294       .  A
O2865     Zr2896   2.444       .  S
O2865      C2866   1.290       .  A
C2866      C3740   1.504       .  S
O2867     Zr2870   2.427       .  S
O2867      C2869   1.285       .  A
O2868     Zr2897   2.410       .  S
O2868      C2869   1.283       .  A
C2869      C3712   1.459       .  S
Zr2870     O2876   2.382       .  S
Zr2870     O2877   2.323       .  S
Zr2870     O2900   2.331       .  S
Zr2870     O2902   2.378       .  S
O2871      H2914   0.990       .  S
O2872      H2913   0.990       .  S
O2872      H2917   0.990       .  S
Zr2873     O2877   2.371       .  S
Zr2873     O2876   2.359       .  S
Zr2873     O2901   2.341       .  S
Zr2873     O2903   2.378       .  S
Zr2873     O2875   2.436       .  S
O2874      H2915   0.989       .  S
O2874      H2918   0.990       .  S
O2875      H2908   0.990       .  S
O2876     Zr2896   2.393       .  S
O2877     Zr2897   2.399       .  S
O2877      H2904   0.965       .  S
O2878     Zr2890   2.350       .  S
O2878      C2880   1.270       .  A
O2879     Zr2897   2.405       .  S
O2879      C2880   1.286       .  A
O2881     Zr2893   2.343       .  S
O2881      C2883   1.269       .  A
O2882     Zr2896   2.464       .  S
O2882      C2883   1.299       .  A
C2883      C3302   1.440       .  S
O2884     Zr2893   2.429       .  S
O2884      C2886   1.284       .  A
O2885     Zr2897   2.489       .  S
O2885      C2886   1.297       .  A
C2886      C3701   1.518       .  S
O2887     Zr2890   2.411       .  S
O2887      C2889   1.281       .  A
O2888     Zr2896   2.476       .  S
O2888      C2889   1.296       .  A
C2889      C3726   1.494       .  S
Zr2890     O2898   2.388       .  S
Zr2890     O2899   2.338       .  S
Zr2890     O2902   2.330       .  S
Zr2890     O2900   2.361       .  S
Zr2890     O2891   2.401       .  S
O2891      H2911   0.989       .  S
O2891      H2916   0.990       .  S
O2892      H2912   0.990       .  S
Zr2893     O2899   2.392       .  S
Zr2893     O2898   2.352       .  S
Zr2893     O2903   2.339       .  S
Zr2893     O2901   2.379       .  S
Zr2893     O2894   2.433       .  S
Zr2893     O2895   2.434       .  S
O2894      H2910   0.990       .  S
O2895      H2909   0.990       .  S
O2895      H2919   0.990       .  S
Zr2896     O2899   2.381       .  S
Zr2896     O2901   2.393       .  S
Zr2896     O2902   2.374       .  S
Zr2897     O2898   2.373       .  S
Zr2897     O2900   2.366       .  S
Zr2897     O2903   2.378       .  S
O2898      H2906   0.966       .  S
O2901      H2905   0.966       .  S
O2902      H2907   0.966       .  S
O2920     Zr2932   2.322       .  S
O2920      C2922   1.266       .  A
O2921     Zr2958   2.367       .  S
O2921      C2922   1.279       .  A
O2923     Zr2935   2.356       .  S
O2923      C2925   1.272       .  A
O2924     Zr2959   2.416       .  S
O2924      C2925   1.288       .  A
C2925      C3299   1.431       .  S
O2926     Zr2935   2.424       .  S
O2926      C2928   1.284       .  A
O2927     Zr2958   2.428   1_554  S
O2927      C2928   1.284   1_554  A
C2928      C3670   1.474   1_556  S
O2929     Zr2932   2.409       .  S
O2929      C2931   1.280       .  A
O2930     Zr2959   2.456       .  S
O2930      C2931   1.291       .  A
C2931      C3687   1.481       .  S
Zr2932     O2938   2.388       .  S
Zr2932     O2939   2.344       .  S
Zr2932     O2962   2.321       .  S
Zr2932     O2964   2.375       .  S
Zr2932     O2933   2.434       .  S
O2933      H2976   0.990       .  S
O2934      H2975   0.990       .  S
O2934      H2979   0.990       .  S
Zr2935     O2939   2.394       .  S
Zr2935     O2938   2.343       .  S
Zr2935     O2963   2.351       .  S
Zr2935     O2965   2.374       .  S
Zr2935     O2936   2.434       .  S
Zr2935     O2937   2.436       .  S
O2936      H2977   0.990       .  S
O2936      H2980   0.990       .  S
O2937      H2970   0.990       .  S
O2938     Zr2958   2.370       .  S
O2939     Zr2959   2.375       .  S
O2939      H2966   0.966       .  S
O2940     Zr2952   2.311       .  S
O2940      C2942   1.265       .  A
O2941     Zr2959   2.392       .  S
O2941      C2942   1.284       .  A
O2943     Zr2955   2.442       .  S
O2943      C2945   1.287       .  A
O2944     Zr2958   2.365       .  S
O2944      C2945   1.274       .  A
C2945      C3179   1.414   1_556  S
O2946     Zr2955   2.476       .  S
O2946      C2948   1.295       .  A
O2947     Zr2959   2.419       .  S
O2947      C2948   1.284       .  A
C2948      C3645   1.510       .  S
O2949     Zr2952   2.406       .  S
O2949      C2951   1.281       .  A
O2950     Zr2958   2.400       .  S
O2950      C2951   1.280       .  A
C2951      C3656   1.448   1_556  S
Zr2952     O2960   2.388       .  S
Zr2952     O2961   2.312       .  S
Zr2952     O2964   2.329       .  S
Zr2952     O2962   2.368       .  S
Zr2952     O2953   2.437       .  S
O2953      H2973   0.990       .  S
O2953      H2978   0.990       .  S
O2954      H2974   0.990       .  S
Zr2955     O2961   2.362       .  S
Zr2955     O2960   2.350       .  S
Zr2955     O2965   2.348       .  S
Zr2955     O2963   2.374       .  S
Zr2955     O2956   2.434       .  S
Zr2955     O2957   2.429       .  S
O2956      H2972   0.990       .  S
O2957      H2971   0.990       .  S
O2957      H2981   0.990       .  S
Zr2958     O2961   2.372       .  S
Zr2958     O2963   2.379       .  S
Zr2958     O2964   2.370       .  S
Zr2959     O2960   2.398       .  S
Zr2959     O2962   2.360       .  S
Zr2959     O2965   2.375       .  S
O2960      H2968   0.966       .  S
O2963      H2967   0.966       .  S
O2964      H2969   0.966       .  S
O2982     Zr2994   2.297       .  S
O2982      C2984   1.259       .  A
O2983     Zr3020   2.542       .  S
O2983      C2984   1.316       .  A
O2985     Zr2997   2.367       .  S
O2985      C2987   1.275       .  A
O2986     Zr3021   2.406       .  S
O2986      C2987   1.284       .  A
C2987      C3117   1.418       .  S
O2988     Zr2997   2.428       .  S
O2988      C2990   1.285       .  A
O2989     Zr3020   2.504       .  S
O2989      C2990   1.303       .  A
C2990      C3614   1.504       .  S
O2991     Zr2994   2.375       .  S
O2991      C2993   1.272       .  A
O2992     Zr3021   2.524       .  S
O2992      C2993   1.303       .  A
C2993      C3600   1.502       .  S
Zr2994     O3000   2.351       .  S
Zr2994     O3001   2.330       .  S
Zr2994     O3024   2.330       .  S
Zr2994     O3026   2.369       .  S
Zr2994     O2995   2.436       .  S
O2995      H3038   0.990   1_556  S
O2996      H3037   0.990       .  S
O2996      H3041   0.989       .  S
Zr2997     O3001   2.375       .  S
Zr2997     O3000   2.332       .  S
Zr2997     O3025   2.342       .  S
Zr2997     O3027   2.373       .  S
Zr2997     O2998   2.435   1_556  S
Zr2997     O2999   2.435       .  S
O2998      H3039   0.990       .  S
O2998      H3042   0.989       .  S
O2999      H3032   0.990       .  S
O3000     Zr3020   2.352       .  S
O3001     Zr3021   2.392       .  S
O3001      H3028   0.965       .  S
O3002     Zr3014   2.361       .  S
O3002      C3004   1.273       .  A
O3003     Zr3021   2.434       .  S
O3003      C3004   1.289       .  A
O3005     Zr3017   2.362       .  S
O3005      C3007   1.273       .  A
O3006     Zr3020   2.472       .  S
O3006      C3007   1.297       .  A
C3007      C3322   1.445       .  S
O3008     Zr3017   2.420       .  S
O3008      C3010   1.284       .  A
O3009     Zr3021   2.508       .  S
O3009      C3010   1.303       .  A
C3010      C3586   1.511       .  S
O3011     Zr3014   2.376       .  S
O3011      C3013   1.275       .  A
O3012     Zr3020   2.538       .  S
O3012      C3013   1.310       .  A
C3013      C3628   1.506       .  S
Zr3014     O3022   2.358       .  S
Zr3014     O3023   2.336       .  S
Zr3014     O3026   2.354       .  S
Zr3014     O3024   2.359       .  S
Zr3014     O3015   2.436       .  S
O3015      H3035   0.990       .  S
O3015      H3040   0.990       .  S
O3016      H3036   0.990       .  S
Zr3017     O3023   2.361       .  S
Zr3017     O3022   2.340       .  S
Zr3017     O3027   2.337       .  S
Zr3017     O3025   2.377       .  S
Zr3017     O3018   2.434       .  S
Zr3017     O3019   2.422       .  S
O3018      H3034   0.990       .  S
O3019      H3033   0.989       .  S
O3019      H3043   0.990       .  S
Zr3020     O3023   2.391       .  S
Zr3020     O3025   2.416       .  S
Zr3020     O3026   2.396       .  S
Zr3021     O3022   2.392       .  S
Zr3021     O3024   2.386       .  S
Zr3021     O3027   2.403       .  S
O3022      H3030   0.965       .  S
O3025      H3029   0.966       .  S
O3026      H3031   0.966       .  S
C3044      C3533   1.594       .  S
C3044      C3544   1.600       .  S
C3044      C3558   1.585       .  S
C3044      C3572   1.623       .  S
C3045      C3474   1.571       .  S
C3045      C3491   1.631       .  S
C3045      C3505   1.600       .  S
C3045      C3516   1.655       .  S
C3046      C3418   1.576       .  S
C3046      C3432   1.603       .  S
C3046      C3446   1.611       .  S
C3046      C3460   1.621       .  S
O3048     Zr3085   2.381       .  S
O3048      C3049   1.284       .  A
O3050      C3052   1.270       .  A
O3051     Zr3086   2.463       .  S
O3054     Zr3085   2.423       .  S
O3054      C3055   1.284       .  A
O3057     Zr3086   2.484       .  S
O3057      C3058   1.299       .  A
Zr3059     O3065   2.377       .  S
Zr3059     O3066   2.332       .  S
Zr3059     O3089   2.345       .  S
Zr3059     O3091   2.389       .  S
Zr3059     O3061   2.435       .  S
O3060      H3103   0.990       .  S
O3061      H3102   0.990       .  S
Zr3062     O3066   2.376       .  S
Zr3062     O3065   2.324       .  S
Zr3062     O3090   2.329       .  S
Zr3062     O3092   2.400       .  S
O3063      H3104   0.990       .  S
O3063      H3107   0.990       .  S
O3064      H3097   0.990       .  S
O3065     Zr3085   2.369       .  S
O3066     Zr3086   2.380       .  S
O3067     Zr3079   2.377       .  S
O3067      C3069   1.276       .  A
O3068     Zr3086   2.454       .  S
O3068      C3069   1.297       .  A
C3069      C3243   1.452       .  S
O3070     Zr3082   2.421       .  S
O3070      C3072   1.287       .  A
O3071     Zr3085   2.390       .  S
O3071      C3072   1.277       .  A
O3073     Zr3082   2.456       .  S
O3073      C3075   1.291       .  A
O3074     Zr3086   2.464       .  S
O3074      C3075   1.295       .  A
O3076     Zr3079   2.428       .  S
O3076      C3078   1.285       .  A
O3077     Zr3085   2.449       .  S
O3077      C3078   1.290       .  A
C3078      C3530   1.494       .  S
Zr3079     O3087   2.368       .  S
Zr3079     O3088   2.350       .  S
Zr3079     O3091   2.342       .  S
Zr3079     O3089   2.393       .  S
Zr3079     O3080   2.439       .  S
Zr3079     O3081   2.425       .  S
O3080      H3100   0.990       .  S
O3080      H3105   0.990       .  S
O3081      H3101   0.989       .  S
Zr3082     O3088   2.375       .  S
Zr3082     O3087   2.347       .  S
Zr3082     O3092   2.361       .  S
Zr3082     O3090   2.369       .  S
Zr3082     O3083   2.432       .  S
O3083      H3099   0.990       .  S
O3084      H3098   0.990       .  S
O3084      H3108   0.990       .  S
Zr3085     O3088   2.373       .  S
Zr3085     O3090   2.374       .  S
Zr3085     O3091   2.381       .  S
Zr3086     O3087   2.387       .  S
Zr3086     O3089   2.387       .  S
Zr3086     O3092   2.400       .  S
O3087      H3095   0.965       .  S
O3091      H3096   0.966       .  S
O3110     Zr3147   2.421   1_556  S
O3110      C3111   1.284       .  A
O3112     Zr3124   2.467       .  S
O3112      C3114   1.292       .  A
O3113     Zr3148   2.409       .  S
O3113      C3114   1.285       .  A
C3114      C3477   1.478       .  S
O3115     Zr3124   2.419       .  S
O3115      C3117   1.287   1_554  A
O3116     Zr3147   2.361   1_556  S
O3116      C3117   1.272       .  A
O3119     Zr3148   2.407       .  S
O3119      C3120   1.285       .  A
Zr3121     O3127   2.339       .  S
Zr3121     O3128   2.387       .  S
Zr3121     O3151   2.370       .  S
Zr3121     O3153   2.324       .  S
Zr3121     O3122   2.434       .  S
O3122      H3165   0.990       .  S
O3123      H3164   0.989       .  S
O3123      H3168   0.990       .  S
Zr3124     O3128   2.348       .  S
Zr3124     O3127   2.371       .  S
Zr3124     O3152   2.374       .  S
Zr3124     O3154   2.347       .  S
Zr3124     O3125   2.432       .  S
Zr3124     O3126   2.432       .  S
O3125      H3166   0.989       .  S
O3125      H3169   0.990       .  S
O3126      H3159   0.989       .  S
O3127     Zr3147   2.389       .  S
O3128     Zr3148   2.397       .  S
O3128      H3155   0.966       .  S
O3130     Zr3148   2.464       .  S
O3130      C3131   1.292       .  A
O3132     Zr3144   2.421       .  S
O3132      C3134   1.283   1_554  A
O3133     Zr3147   2.454   1_556  S
O3133      C3134   1.286       .  A
C3134      C3547   1.493       .  S
O3135     Zr3144   2.363       .  S
O3135      C3137   1.273       .  A
O3136     Zr3148   2.424       .  S
O3136      C3137   1.290       .  A
C3137      C3246   1.437       .  S
O3139     Zr3147   2.372   1_556  S
O3139      C3140   1.281       .  A
Zr3141     O3149   2.338       .  S
Zr3141     O3150   2.375       .  S
Zr3141     O3153   2.370       .  S
Zr3141     O3151   2.327       .  S
Zr3141     O3142   2.433       .  S
O3142      H3162   0.990       .  S
O3143      H3163   0.990       .  S
Zr3144     O3150   2.345       .  S
Zr3144     O3149   2.377       .  S
Zr3144     O3154   2.366       .  S
Zr3144     O3152   2.346       .  S
Zr3144     O3145   2.433       .  S
Zr3144     O3146   2.435       .  S
O3145      H3161   0.990       .  S
O3146      H3160   0.990       .  S
O3146      H3170   0.990       .  S
Zr3147     O3150   2.375       .  S
Zr3147     O3152   2.387       .  S
Zr3147     O3153   2.374       .  S
Zr3148     O3149   2.373       .  S
Zr3148     O3151   2.367       .  S
Zr3148     O3154   2.371       .  S
O3149      H3157   0.966       .  S
O3152      H3156   0.966       .  S
O3172     Zr3209   2.507       .  S
O3172      C3173   1.290       .  A
O3174     Zr3186   2.389       .  S
O3174      C3176   1.274       .  A
O3175     Zr3210   2.524       .  S
O3175      C3176   1.308       .  A
C3176      C3561   1.509   1_554  S
O3177     Zr3186   2.367       .  S
O3177      C3179   1.273       .  A
O3178     Zr3209   2.408       .  S
O3178      C3179   1.281       .  A
O3181     Zr3210   2.550       .  S
O3181      C3182   1.320   1_554  A
Zr3183     O3189   2.345       .  S
Zr3183     O3190   2.361       .  S
Zr3183     O3213   2.382       .  S
Zr3183     O3215   2.355       .  S
Zr3183     O3184   2.436   1_554  S
O3184      H3227   0.990       .  S
O3185      H3226   0.990       .  S
O3185      H3230   0.990       .  S
Zr3186     O3190   2.338       .  S
Zr3186     O3189   2.353       .  S
Zr3186     O3214   2.364       .  S
Zr3186     O3216   2.353       .  S
Zr3186     O3187   2.437   1_554  S
Zr3186     O3188   2.436       .  S
O3187      H3228   0.990       .  S
O3187      H3231   0.989       .  S
O3188      H3221   0.990       .  S
O3189     Zr3209   2.400       .  S
O3190     Zr3210   2.391       .  S
O3190      H3217   0.964       .  S
O3192     Zr3210   2.587       .  S
O3192      C3193   1.320       .  A
O3194     Zr3206   2.412       .  S
O3194      C3196   1.282       .  A
O3195     Zr3209   2.477       .  S
O3195      C3196   1.296       .  A
C3196      C3421   1.485       .  S
O3197     Zr3206   2.386       .  S
O3197      C3199   1.278       .  A
O3198     Zr3210   2.504       .  S
O3198      C3199   1.303       .  A
C3199      C3263   1.471       .  S
O3201     Zr3209   2.414       .  S
O3201      C3202   1.284       .  A
Zr3203     O3211   2.334       .  S
Zr3203     O3212   2.363       .  S
Zr3203     O3215   2.362       .  S
Zr3203     O3213   2.359       .  S
Zr3203     O3204   2.434       .  S
O3204      H3224   0.989       .  S
O3205      H3225   0.990       .  S
Zr3206     O3212   2.350       .  S
Zr3206     O3211   2.363       .  S
Zr3206     O3216   2.365       .  S
Zr3206     O3214   2.355       .  S
Zr3206     O3207   2.435       .  S
Zr3206     O3208   2.433       .  S
O3207      H3223   0.990       .  S
O3208      H3222   0.990       .  S
O3208      H3232   0.990       .  S
Zr3209     O3212   2.384       .  S
Zr3209     O3214   2.408       .  S
Zr3209     O3215   2.433       .  S
Zr3210     O3211   2.390       .  S
Zr3210     O3213   2.402       .  S
Zr3210     O3216   2.417       .  S
O3211      H3219   0.964       .  S
O3214      H3218   0.966       .  S
C3233      C3404   1.601       .  S
C3233      C3617   1.585       .  S
C3233      C3673   1.575       .  S
C3233      C3698   1.589       .  S
C3234      C3390   1.633       .  S
C3234      C3589   1.615       .  S
C3234      C3684   1.599       .  S
C3234      C3729   1.565       .  S
O3235     Zr3247   2.439       .  S
O3235      C3237   1.286       .  A
O3236     Zr3273   2.508       .  S
O3236      C3237   1.302       .  A
C3237      C3393   1.522       .  S
O3238     Zr3250   2.420       .  S
O3238      C3240   1.284       .  A
O3239     Zr3274   2.475       .  S
O3239      C3240   1.294       .  A
C3240      C3365   1.513       .  S
O3241     Zr3250   2.371       .  S
O3241      C3243   1.275       .  A
O3242     Zr3273   2.455       .  S
O3242      C3243   1.296       .  A
O3244     Zr3247   2.360       .  S
O3244      C3246   1.273       .  A
O3245     Zr3274   2.436       .  S
O3245      C3246   1.292       .  A
Zr3247     O3253   2.339       .  S
Zr3247     O3254   2.384       .  S
Zr3247     O3277   2.392       .  S
Zr3247     O3279   2.350       .  S
Zr3247     O3248   2.436       .  S
Zr3247     O3249   2.435       .  S
O3248      H3291   0.990       .  S
O3249      H3290   0.990       .  S
O3249      H3294   0.990       .  S
Zr3250     O3254   2.343       .  S
Zr3250     O3253   2.375       .  S
Zr3250     O3278   2.386       .  S
Zr3250     O3280   2.344       .  S
Zr3250     O3251   2.439       .  S
Zr3250     O3252   2.428       .  S
O3251      H3292   0.990       .  S
O3251      H3295   0.990       .  S
O3252      H3285   0.990       .  S
O3253     Zr3273   2.373       .  S
O3254     Zr3274   2.391       .  S
O3254      H3281   0.966       .  S
O3255     Zr3267   2.448       .  S
O3255      C3257   1.289       .  A
O3256     Zr3274   2.491       .  S
O3256      C3257   1.298       .  A
C3257      C3407   1.513       .  S
O3258     Zr3270   2.523       .  S
O3258      C3260   1.304       .  A
O3259     Zr3273   2.467       .  S
O3259      C3260   1.295       .  A
C3260      C3379   1.526       .  S
O3261     Zr3270   2.467       .  S
O3261      C3263   1.296       .  A
O3262     Zr3274   2.438       .  S
O3262      C3263   1.288       .  A
O3264     Zr3267   2.388       .  S
O3264      C3266   1.278       .  A
O3265     Zr3273   2.456       .  S
O3265      C3266   1.297       .  A
C3266      C3319   1.459       .  S
Zr3267     O3275   2.358       .  S
Zr3267     O3276   2.378       .  S
Zr3267     O3279   2.391       .  S
Zr3267     O3277   2.356       .  S
Zr3267     O3268   2.437       .  S
Zr3267     O3269   2.435       .  S
O3268      H3288   0.990       .  S
O3268      H3293   0.990       .  S
O3269      H3289   0.990       .  S
Zr3270     O3276   2.356       .  S
Zr3270     O3275   2.392       .  S
Zr3270     O3280   2.383       .  S
Zr3270     O3278   2.367       .  S
Zr3270     O3271   2.435       .  S
Zr3270     O3272   2.435       .  S
O3271      H3287   0.990       .  S
O3272      H3286   0.990       .  S
O3272      H3296   0.990       .  S
Zr3273     O3276   2.391       .  S
Zr3273     O3278   2.406       .  S
Zr3273     O3279   2.389       .  S
Zr3274     O3275   2.402       .  S
Zr3274     O3277   2.392       .  S
Zr3274     O3280   2.396       .  S
O3275      H3283   0.966       .  S
O3278      H3282   0.966       .  S
O3279      H3284   0.966       .  S
O3297     Zr3309   2.365       .  S
O3297      C3299   1.273       .  A
O3298     Zr3335   2.416       .  S
O3298      C3299   1.289       .  A
O3300     Zr3312   2.345       .  S
O3300      C3302   1.269       .  A
O3301     Zr3336   2.462       .  S
O3301      C3302   1.299       .  A
O3303     Zr3312   2.442       .  S
O3303      C3305   1.289       .  A
O3304     Zr3335   2.481       .  S
O3304      C3305   1.294       .  A
C3305      C3782   1.531       .  S
O3306     Zr3309   2.442       .  S
O3306      C3308   1.287       .  A
O3307     Zr3336   2.516       .  S
O3307      C3308   1.304       .  A
C3308      C3463   1.520       .  S
Zr3309     O3315   2.385       .  S
Zr3309     O3316   2.338       .  S
Zr3309     O3339   2.354       .  S
Zr3309     O3341   2.390       .  S
Zr3309     O3310   2.436       .  S
Zr3309     O3311   2.432       .  S
O3310      H3353   0.990       .  S
O3311      H3352   0.990       .  S
O3311      H3356   0.990       .  S
Zr3312     O3316   2.380       .  S
Zr3312     O3315   2.339       .  S
Zr3312     O3340   2.326       .  S
Zr3312     O3342   2.397       .  S
Zr3312     O3313   2.438       .  S
Zr3312     O3314   2.433       .  S
O3313      H3354   0.990       .  S
O3313      H3357   0.990       .  S
O3314      H3347   0.990       .  S
O3315     Zr3335   2.379       .  S
O3316     Zr3336   2.388       .  S
O3316      H3343   0.965       .  S
O3317     Zr3329   2.392       .  S
O3317      C3319   1.278       .  A
O3318     Zr3336   2.459       .  S
O3318      C3319   1.298       .  A
O3320     Zr3332   2.448       .  S
O3320      C3322   1.293       .  A
O3321     Zr3335   2.411       .  S
O3321      C3322   1.283       .  A
O3323     Zr3332   2.525       .  S
O3323      C3325   1.304       .  A
O3324     Zr3336   2.504       .  S
O3324      C3325   1.303       .  A
C3325      C3519   1.549       .  S
O3326     Zr3329   2.459       .  S
O3326      C3328   1.290       .  A
O3327     Zr3335   2.489       .  S
O3327      C3328   1.298       .  A
C3328      C3575   1.510       .  S
Zr3329     O3337   2.387       .  S
Zr3329     O3338   2.357       .  S
Zr3329     O3341   2.352       .  S
Zr3329     O3339   2.396       .  S
Zr3329     O3330   2.437       .  S
Zr3329     O3331   2.432       .  S
O3330      H3350   0.990       .  S
O3330      H3355   0.990       .  S
O3331      H3351   0.989       .  S
Zr3332     O3338   2.395       .  S
Zr3332     O3337   2.350       .  S
Zr3332     O3342   2.361       .  S
Zr3332     O3340   2.389       .  S
Zr3332     O3333   2.435       .  S
Zr3332     O3334   2.431       .  S
O3333      H3349   0.990       .  S
O3334      H3348   0.990       .  S
O3334      H3358   0.990       .  S
Zr3335     O3338   2.398       .  S
Zr3335     O3340   2.394       .  S
Zr3335     O3341   2.391       .  S
Zr3336     O3337   2.398       .  S
Zr3336     O3339   2.395       .  S
Zr3336     O3342   2.398       .  S
O3337      H3345   0.966       .  S
O3340      H3344   0.965       .  S
O3341      H3346   0.966       .  S
C3359      C3376   1.628       .  S
C3359      C3631   1.598       .  S
C3359      C3642   1.621       .  S
C3359      C3743   1.598       .  S
C3360      C3362   1.621       .  S
C3360      C3603   1.565       .  S
C3360      C3659   1.585       .  S
C3360      C3715   1.567       .  S
C3361      C3362   1.428       .  A
C3361      C3366   1.423       .  A
C3361      H3368   1.061       .  S
C3362      C3363   1.441       .  A
C3363      C3364   1.401       .  A
C3363      N3370   1.433       .  S
C3364      C3365   1.402       .  A
C3364      H3369   1.083       .  S
C3365      C3366   1.408       .  A
C3366      N3367   1.438       .  S
N3367      H3371   1.046       .  S
N3367      H3372   1.046       .  S
N3370      H3373   1.047       .  S
N3370      H3374   1.046       .  S
C3375      C3376   1.431       .  A
C3375      C3380   1.424       .  A
C3375      H3382   1.082       .  S
C3376      C3377   1.436       .  A
C3377      C3378   1.431       .  A
C3377      N3384   1.430       .  S
C3378      C3379   1.406       .  A
C3378      H3383   1.084       .  S
C3379      C3380   1.418       .  A
C3380      N3381   1.438       .  S
N3381      H3385   1.046       .  S
N3381      H3386   1.044       .  S
N3384      H3387   1.046       .  S
N3384      H3388   1.044       .  S
C3389      C3390   1.433       .  A
C3389      C3394   1.422       .  A
C3389      H3396   1.068       .  S
C3390      C3391   1.450       .  A
C3391      C3392   1.417       .  A
C3391      N3398   1.436       .  S
C3392      C3393   1.401       .  A
C3392      H3397   1.084       .  S
C3393      C3394   1.408       .  A
C3394      N3395   1.429       .  S
N3395      H3399   1.045       .  S
N3395      H3400   1.046       .  S
N3398      H3401   1.046       .  S
N3398      H3402   1.046       .  S
C3403      C3404   1.421       .  A
C3403      C3408   1.410       .  A
C3403      H3410   1.083       .  S
C3404      C3405   1.448       .  A
C3405      C3406   1.422       .  A
C3405      N3412   1.434       .  S
C3406      C3407   1.404       .  A
C3406      H3411   1.084       .  S
C3407      C3408   1.411       .  A
C3408      N3409   1.438       .  S
N3409      H3413   1.046       .  S
N3409      H3414   1.045       .  S
N3412      H3415   1.039       .  S
N3412      H3416   1.039       .  S
C3417      C3418   1.418       .  A
C3417      C3422   1.408       .  A
C3417      H3424   1.080       .  S
C3418      C3419   1.435       .  A
C3419      C3420   1.409       .  A
C3419      N3426   1.441       .  S
C3420      C3421   1.400       .  A
C3420      H3425   1.084       .  S
C3421      C3422   1.413       .  A
C3422      N3423   1.437       .  S
N3423      H3427   1.045       .  S
N3423      H3428   1.042       .  S
N3426      H3429   1.042       .  S
N3426      H3430   1.046       .  S
C3431      C3432   1.421       .  A
C3431      C3436   1.393       .  A
C3431      H3438   1.078       .  S
C3432      C3433   1.435       .  A
C3433      C3434   1.421       .  A
C3433      N3440   1.423       .  S
C3434      C3435   1.394       .  A
C3434      H3439   1.075       .  S
C3435      C3436   1.400       .  A
N3437      H3441   1.046       .  S
N3437      H3442   1.046       .  S
N3440      H3443   1.044       .  S
N3440      H3444   1.045       .  S
C3445      C3446   1.418       .  A
C3445      C3450   1.408       .  A
C3445      H3452   1.081       .  S
C3446      C3447   1.449       .  A
C3448      H3453   1.084       .  S
C3449      C3450   1.413       .  A
C3450      N3451   1.432       .  S
N3451      H3455   1.046       .  S
N3451      H3456   1.046       .  S
N3454      H3458   1.046       .  S
C3459      C3460   1.422       .  A
C3459      C3464   1.416       .  A
C3459      H3466   1.084       .  S
C3460      C3461   1.447       .  A
C3461      C3462   1.426       .  A
C3461      N3468   1.431       .  S
C3462      C3463   1.401       .  A
C3462      H3467   1.084       .  S
C3463      C3464   1.414       .  A
C3464      N3465   1.432       .  S
N3465      H3469   1.046       .  S
N3465      H3470   1.046       .  S
N3468      H3471   1.046       .  S
N3468      H3472   1.046       .  S
C3473      C3474   1.416       .  A
C3473      C3478   1.411       .  A
C3473      H3480   1.083       .  S
C3474      C3475   1.444       .  A
C3475      C3476   1.401       .  A
C3475      N3482   1.437       .  S
C3476      C3477   1.392       .  A
C3476      H3481   1.085       .  S
C3477      C3478   1.407       .  A
C3478      N3479   1.437       .  S
N3479      H3483   1.046       .  S
N3479      H3484   1.045       .  S
N3482      H3485   1.045       .  S
N3482      H3486   1.045       .  S
C3487      C3488   1.398       .  A
C3487      C3492   1.430       .  A
C3488      C3489   1.439       .  A
C3489      C3490   1.420       .  A
C3489      N3496   1.434       .  S
C3490      C3491   1.401       .  A
C3490      H3495   1.081       .  S
C3491      C3492   1.450       .  A
C3492      N3493   1.424       .  S
N3493      H3498   1.046       .  S
N3496      H3499   1.046       .  S
N3496      H3500   1.046       .  S
C3501      C3502   1.385       .  A
C3501      C3506   1.402       .  A
C3501      H3508   1.086       .  S
C3503      N3510   1.437       .  S
C3504      C3505   1.425       .  A
C3505      C3506   1.443       .  A
C3506      N3507   1.423       .  S
N3507      H3511   1.045       .  S
N3507      H3512   1.047       .  S
N3510      H3513   1.044       .  S
N3510      H3514   1.041       .  S
C3515      C3516   1.431       .  A
C3515      C3520   1.434       .  A
C3515      H3522   1.074       .  S
C3516      C3517   1.435       .  A
C3517      C3518   1.433       .  A
C3517      N3524   1.435       .  S
C3518      C3519   1.408       .  A
C3518      H3523   1.084       .  S
C3519      C3520   1.427       .  A
C3520      N3521   1.437       .  S
N3521      H3525   1.046       .  S
N3521      H3526   1.042       .  S
N3524      H3527   1.046       .  S
N3524      H3528   1.045       .  S
C3529      C3530   1.398       .  A
C3529      C3534   1.412       .  A
C3529      H3536   1.084       .  S
C3530      C3531   1.414       .  A
C3531      C3532   1.402       .  A
C3531      N3538   1.441       .  S
C3532      C3533   1.415       .  A
C3532      H3537   1.069       .  S
C3533      C3534   1.445       .  A
C3534      N3535   1.435       .  S
N3535      H3539   1.046       .  S
N3535      H3540   1.045       .  S
N3538      H3541   1.044       .  S
N3538      H3542   1.046       .  S
C3543      C3544   1.434       .  A
C3543      C3548   1.423       .  A
C3543      H3550   1.083       .  S
C3544      C3545   1.440       .  A
C3545      C3546   1.389       .  A
C3545      N3552   1.428       .  S
C3546      C3547   1.391       .  A
C3546      H3551   1.083   1_556  S
C3547      C3548   1.407       .  A
C3548      N3549   1.436       .  S
N3549      H3553   1.046       .  S
N3549      H3554   1.045       .  S
N3552      H3555   1.046       .  S
N3552      H3556   1.046       .  S
C3557      C3558   1.416       .  A
C3557      C3562   1.401       .  A
C3557      H3564   1.083       .  S
C3558      C3559   1.434       .  A
C3559      C3560   1.419       .  A
C3559      N3566   1.425       .  S
C3560      C3561   1.398       .  A
C3560      H3565   1.080       .  S
C3561      C3562   1.427       .  A
C3562      N3563   1.434       .  S
N3563      H3567   1.043       .  S
N3563      H3568   1.046   1_556  S
N3566      H3569   1.046       .  S
N3566      H3570   1.042       .  S
C3571      C3572   1.425       .  A
C3571      C3576   1.414       .  A
C3571      H3578   1.070       .  S
C3572      C3573   1.456       .  A
C3573      C3574   1.420       .  A
C3573      N3580   1.440       .  S
C3574      C3575   1.399       .  A
C3574      H3579   1.084       .  S
C3575      C3576   1.409       .  A
C3576      N3577   1.434       .  S
N3577      H3581   1.046       .  S
N3577      H3582   1.043       .  S
N3580      H3583   1.038       .  S
N3580      H3584   1.045       .  S
C3585      C3586   1.404       .  A
C3585      C3590   1.410       .  A
C3585      H3592   1.085       .  S
C3586      C3587   1.414       .  A
C3587      C3588   1.421       .  A
C3587      N3594   1.438       .  S
C3588      C3589   1.438       .  A
C3588      H3593   1.080       .  S
C3589      C3590   1.425       .  A
C3590      N3591   1.420       .  S
N3591      H3595   1.046       .  S
N3591      H3596   1.046       .  S
N3594      H3597   1.041       .  S
N3594      H3598   1.046       .  S
C3599      C3600   1.396       .  A
C3599      C3604   1.415   1_566  A
C3599      H3606   1.083       .  S
C3601      C3602   1.396       .  A
C3601      N3608   1.429       .  S
C3602      C3603   1.397       .  A
C3602      H3607   1.080       .  S
C3604      N3605   1.429       .  S
N3605      H3609   1.046   1_545  S
N3608      H3611   1.046       .  S
N3608      H3612   1.046       .  S
C3613      C3614   1.407   1_554  A
C3613      C3618   1.413       .  A
C3613      H3620   1.084       .  S
C3614      C3615   1.408       .  A
C3615      C3616   1.421   1_556  A
C3615      N3622   1.438       .  S
C3616      C3617   1.429       .  A
C3616      H3621   1.077   1_554  S
C3617      C3618   1.422       .  A
C3618      N3619   1.433       .  S
N3619      H3623   1.045       .  S
N3619      H3624   1.045       .  S
N3622      H3625   1.045       .  S
N3622      H3626   1.046       .  S
C3627      C3628   1.403       .  A
C3627      C3632   1.425       .  A
C3627      H3634   1.084       .  S
C3629      C3630   1.409       .  A
C3629      N3636   1.433       .  S
C3630      C3631   1.419       .  A
C3630      H3635   1.083       .  S
C3632      N3633   1.429       .  S
N3633      H3637   1.044       .  S
N3633      H3638   1.046       .  S
N3636      H3639   1.045       .  S
N3636      H3640   1.046       .  S
C3641      C3642   1.430       .  A
C3641      C3646   1.398       .  A
C3641      H3648   1.063       .  S
C3642      C3643   1.448       .  A
C3643      C3644   1.423       .  A
C3643      N3650   1.440       .  S
C3644      C3645   1.410       .  A
C3644      H3649   1.084       .  S
C3645      C3646   1.403       .  A
C3646      N3647   1.442       .  S
N3647      H3651   1.045       .  S
N3647      H3652   1.046       .  S
N3650      H3653   1.040       .  S
N3650      H3654   1.046       .  S
C3655      C3660   1.396       .  A
C3655      H3662   1.085   1_554  S
C3656      C3657   1.391       .  A
C3657      C3658   1.394   1_655  A
C3657      N3664   1.440       .  S
C3658      H3663   1.075   1_455  S
C3659      C3660   1.430       .  A
C3660      N3661   1.429       .  S
N3661      H3665   1.047       .  S
N3661      H3666   1.046   1_554  S
N3664      H3667   1.045       .  S
N3664      H3668   1.046       .  S
C3669      C3670   1.397       .  A
C3669      C3674   1.396       .  A
C3669      H3676   1.085   1_554  S
C3670      C3671   1.404       .  A
C3671      C3672   1.410       .  A
C3671      N3678   1.437       .  S
C3672      C3673   1.424       .  A
C3672      H3677   1.079       .  S
C3673      C3674   1.421       .  A
C3674      N3675   1.428       .  S
N3675      H3679   1.046       .  S
N3675      H3680   1.046   1_554  S
N3678      H3681   1.045       .  S
N3678      H3682   1.046       .  S
C3683      C3684   1.417       .  A
C3683      C3688   1.406       .  A
C3683      H3690   1.083       .  S
C3685      C3686   1.403       .  A
C3685      N3692   1.432       .  S
C3686      C3687   1.387       .  A
C3686      H3691   1.085       .  S
C3688      N3689   1.439       .  S
N3689      H3693   1.046       .  S
N3689      H3694   1.044       .  S
N3692      H3695   1.046       .  S
N3692      H3696   1.046       .  S
C3697      C3698   1.411       .  A
C3697      C3702   1.408       .  A
C3697      H3704   1.080       .  S
C3698      C3699   1.431       .  A
C3699      C3700   1.420       .  A
C3699      N3706   1.433       .  S
C3700      C3701   1.407       .  A
C3700      H3705   1.083       .  S
C3701      C3702   1.423       .  A
C3702      N3703   1.438       .  S
N3703      H3707   1.046       .  S
N3703      H3708   1.046       .  S
N3706      H3709   1.045       .  S
N3706      H3710   1.046       .  S
C3711      C3712   1.395   1_455  A
C3711      H3718   1.084       .  S
C3713      C3714   1.396   1_655  A
C3713      N3720   1.439       .  S
C3714      H3719   1.084       .  S
C3716      N3717   1.431       .  S
N3717      H3721   1.044       .  S
N3717      H3722   1.045       .  S
N3720      H3723   1.046       .  S
N3720      H3724   1.046       .  S
C3725      C3726   1.403       .  A
C3725      C3730   1.407   1_655  A
C3725      H3732   1.084       .  S
C3726      C3727   1.407   1_655  A
C3727      N3734   1.433       .  S
C3728      C3729   1.416       .  A
C3728      H3733   1.080       .  S
C3730      N3731   1.441       .  S
N3731      H3735   1.046       .  S
N3734      H3737   1.046       .  S
C3739      C3740   1.396   1_545  A
C3739      H3746   1.085       .  S
C3741      C3742   1.413       .  A
C3741      N3748   1.431       .  S
C3742      C3743   1.430       .  A
C3742      H3747   1.082       .  S
C3743      C3744   1.434       .  A
C3744      N3745   1.423       .  S
N3745      H3749   1.046       .  S
N3745      H3750   1.046       .  S
N3748      H3752   1.045       .  S
C3753      C3754   1.433       .  A
C3753      H3760   1.083       .  S
C3754      C3755   1.420       .  A
C3755      C3756   1.410       .  A
C3755      N3762   1.435       .  S
C3756      C3757   1.412       .  A
C3756      H3761   1.076       .  S
C3758      N3759   1.436       .  S
N3759      H3763   1.044       .  S
N3759      H3764   1.046   1_556  S
N3762      H3765   1.043       .  S
N3762      H3766   1.046       .  S
C3767      C3768   1.417       .  A
C3767      H3774   1.076       .  S
C3768      C3769   1.425       .  A
C3770      C3771   1.397       .  A
C3770      H3775   1.084       .  S
C3772      N3773   1.439       .  S
N3773      H3777   1.046       .  S
N3773      H3778   1.045       .  S
N3776      H3780   1.045       .  S
C3781      C3782   1.409       .  A
C3781      C3786   1.405       .  A
C3781      H3788   1.083       .  S
C3782      C3783   1.431       .  A
C3783      C3784   1.424       .  A
C3783      N3790   1.439       .  S
C3784      C3785   1.421       .  A
C3784      H3789   1.083       .  S
C3785      C3786   1.432       .  A
C3786      N3787   1.432       .  S
N3787      H3791   1.046       .  S
N3787      H3792   1.046       .  S
N3790      H3793   1.037       .  S
N3790      H3794   1.046       .  S
C3795      C3796   1.411       .  A
C3795      C3800   1.381       .  A
C3795      H3802   1.082       .  S
C3796      C3797   1.421       .  A
C3797      N3804   1.432       .  S
C3798      H3803   1.083       .  S
C3799      C3800   1.415       .  A
C3800      N3801   1.433   1_556  S
N3801      H3805   1.044       .  S
N3801      H3806   1.045       .  S
N3804      H3807   1.045       .  S
