geometry optimzed in LAMMPS
_audit_creation_date              2020-11-30 
_audit_creation_method            'lammps2cif' 
_symmetry_space_group_name_H-M    'P1' 
_symmetry_Int_Tables_number       1 
_symmetry_cell_setting            triclinic 
loop_ 
_symmetry_equiv_pos_as_xyz 
  x,y,z 
_cell_length_a                    25.911425620654477 
_cell_length_b                    25.931867471911648 
_cell_length_c                    26.403795923730932 
_cell_angle_alpha                 89.44253403696749 
_cell_angle_beta                  89.55975695834697 
_cell_angle_gamma                 89.73954504160149 
loop_ 
_atom_site_label 
_atom_site_type_symbol 
_atom_site_fract_x 
_atom_site_fract_y 
_atom_site_fract_z 
_atom_site_charge 
C1          C  0.86651049  0.86579158  0.86997233    -0.03640
N2          N  0.76992640  0.93365052  0.41148888    -0.07270
N3          N  0.73085284  0.94580672  0.44218733    -0.59630
N4          N  0.82157506  0.96823847  0.30057417    -0.06950
N5          N  0.82094996  0.00106606  0.26264201    -0.61510
N6          N  0.78650637  0.93246176  0.29541981    -0.06540
N7          N  0.76153726  0.93954941  0.25309401    -0.59360
N8          N  0.80691288  0.96793218  0.41544159    -0.06220
N9          N  0.79393058  0.00347841  0.44905160    -0.61870
C10         C  0.74631338  0.98948738  0.46585598     0.94910
C11         C  0.78375731  0.98218468  0.23323519     0.94690
N12         N  0.97458319  0.93325972  0.30842074    -0.07450
N13         N  0.01216452  0.94362779  0.27568970    -0.59960
N14         N  0.92733383  0.96103293  0.42143501    -0.05570
N15         N  0.93657003  0.99615394  0.45515355    -0.61220
N16         N  0.96288350  0.92477190  0.42220991    -0.07480
N17         N  0.99754435  0.93400699  0.45646186    -0.60230
N18         N  0.93941410  0.96983953  0.30746684    -0.05210
N19         N  0.95241524  0.00602288  0.27401778    -0.61300
Mn20       Mn  0.87355503  0.96825706  0.36172001     1.18440
C21         C  0.99751957  0.98875513  0.25386770     0.96990
C22         C  0.97999123  0.97816020  0.47614319     0.97660
N23         N  0.77726320  0.81219152  0.29236605    -0.07500
N24         N  0.74144685  0.80153517  0.25845910    -0.63810
N25         N  0.80923363  0.77433585  0.40750765    -0.06300
N26         N  0.79881544  0.73905804  0.44173348    -0.64480
N27         N  0.77339052  0.81052515  0.40681678    -0.07010
N28         N  0.73745978  0.80082402  0.44070969    -0.64070
N29         N  0.81240892  0.77547394  0.29344127    -0.05900
N30         N  0.80075137  0.73915489  0.26043506    -0.64760
Mn31       Mn  0.77486272  0.87254689  0.35160209     1.10660
C32         C  0.75674104  0.75611242  0.23787834     0.98210
C33         C  0.75428220  0.75639028  0.46156514     0.98290
N34         N  0.96709122  0.80465036  0.41919896    -0.07020
N35         N  0.00205006  0.79191084  0.45357226    -0.62390
N36         N  0.93313068  0.78198703  0.29893519    -0.06330
N37         N  0.93924088  0.75745595  0.25626491    -0.59120
N38         N  0.96963479  0.81627450  0.30411273    -0.07640
N39         N  0.00187619  0.81568044  0.26578617    -0.61960
N40         N  0.93165363  0.76867869  0.41612465    -0.06630
N41         N  0.94206552  0.73074411  0.44888164    -0.59140
Mn42       Mn  0.96992940  0.86940671  0.36402565     1.20190
Mn43       Mn  0.87196787  0.77312883  0.35410081     1.10090
Cl44       Cl  0.87231352  0.87063660  0.35848826    -0.87110
C45         C  0.98577658  0.74610164  0.47271963     0.95220
C46         C  0.98201205  0.77923708  0.23620385     0.95020
N47         N  0.96064992  0.43192631  0.91834949    -0.07270
N48         N  0.99721326  0.46441294  0.92900186    -0.59390
N49         N  0.93791394  0.31567771  0.96360028    -0.06950
N50         N  0.95153939  0.28422493  0.00087014    -0.61510
N51         N  0.97353168  0.31671973  0.92810389    -0.06540
N52         N  0.01263352  0.28618527  0.94085348    -0.59360
N53         N  0.92524227  0.43088982  0.95426669    -0.06220
N54         N  0.93649244  0.46268598  0.99038496    -0.61870
C55         C  0.98091537  0.48278529  0.97355411     0.94910
C56         C  0.99827220  0.26583882  0.98640963     0.94690
N57         N  0.78531505  0.30063325  0.92824998    -0.07450
N58         N  0.76170446  0.25668200  0.93556653    -0.59960
N59         N  0.80594624  0.42243113  0.96454828    -0.05570
N60         N  0.79402871  0.45592738  0.00031731    -0.61220
N61         N  0.76835452  0.41897667  0.93175922    -0.07480
N62         N  0.73018140  0.45077287  0.94449721    -0.60230
N63         N  0.82138040  0.30629856  0.96229059    -0.05210
N64         N  0.82314335  0.26710759  0.99370703    -0.61300
Mn65       Mn  0.87222322  0.36931413  0.96227040     1.18440
C66         C  0.78603996  0.23645776  0.97633772     0.96990
C67         C  0.74663938  0.47374387  0.98756692     0.97660
N68         N  0.96377694  0.31109984  0.81199301    -0.07500
N69         N  0.99456884  0.27107708  0.81181063    -0.63810
N70         N  0.92754463  0.42542939  0.76569640    -0.06300
N71         N  0.93818811  0.45787709  0.72774632    -0.64480
N72         N  0.96335079  0.42836454  0.80047373    -0.07010
N73         N  0.99855862  0.46288781  0.78714595    -0.64070
N74         N  0.92710884  0.30667170  0.77827917    -0.05900
N75         N  0.93203790  0.26284934  0.75441759    -0.64760
Mn76       Mn  0.96677718  0.37241328  0.86416754     1.10660
C77         C  0.97403963  0.24129087  0.77615959     0.98210
C78         C  0.98249002  0.48168055  0.74180072     0.98290
N79         N  0.77019746  0.41909679  0.81364768    -0.07020
N80         N  0.73847874  0.45855868  0.81106451    -0.62390
N81         N  0.80585960  0.30353461  0.77258177    -0.06330
N82         N  0.79297130  0.27201353  0.73545821    -0.59120
N83         N  0.77130938  0.30119564  0.80925882    -0.07640
N84         N  0.73436254  0.26805532  0.79759718    -0.61960
N85         N  0.80598758  0.42211922  0.77810627    -0.06630
N86         N  0.79986689  0.46423026  0.75098604    -0.59140
Mn87       Mn  0.77149782  0.35946410  0.87090238     1.20190
Mn88       Mn  0.86663918  0.36445444  0.77127094     1.10090
Cl89       Cl  0.86914622  0.36666027  0.86693209    -0.87110
C90         C  0.75819338  0.48657793  0.77251438     0.95220
C91         C  0.74870478  0.24923236  0.75174242     0.95020
N92         N  0.41854387  0.76768488  0.92991204    -0.07270
N93         N  0.45067955  0.72929929  0.94106986    -0.59390
N94         N  0.30735895  0.82008112  0.96309932    -0.06950
N95         N  0.26864191  0.82185260  0.99501578    -0.61510
N96         N  0.30034673  0.78512416  0.92825967    -0.06540
N97         N  0.25605356  0.76214112  0.93574675    -0.59360
N98         N  0.42422316  0.80532228  0.96227573    -0.06220
N99         N  0.46020718  0.79357525  0.99585603    -0.61870
C100        C  0.47700559  0.74628029  0.98191644     0.94910
C101        C  0.23696920  0.78583804  0.97732685     0.94690
N102        N  0.31460079  0.97165604  0.93199344    -0.07450
N103        N  0.28209034  0.00891877  0.94532349    -0.59960
N104        N  0.43114658  0.92474339  0.95537093    -0.05570
N105        N  0.46352549  0.93546075  0.99122368    -0.61220
N106        N  0.43068054  0.96119487  0.92044281    -0.07480
N107        N  0.46287898  0.99788330  0.93141344    -0.60230
N108        N  0.31612344  0.93602931  0.96749598    -0.05210
N109        N  0.28511852  0.94814205  0.00562490    -0.61300
Mn110      Mn  0.37044112  0.87104847  0.96312954     1.18440
C111        C  0.26382423  0.99374029  0.99155780     0.96990
C112        C  0.48251744  0.98063264  0.97518215     0.97660
N113        N  0.29983252  0.77274717  0.80771710    -0.07500
N114        N  0.26759026  0.73567008  0.79407202    -0.63810
N115        N  0.42063827  0.80833104  0.77779810    -0.06300
N116        N  0.46209001  0.80181444  0.74985374    -0.64480
N117        N  0.41723625  0.77161650  0.81243141    -0.07010
N118        N  0.45578027  0.73898220  0.80857410    -0.64070
N119        N  0.30235954  0.80836328  0.77202053    -0.05900
N120        N  0.27161734  0.79633227  0.73396370    -0.64760
Mn121      Mn  0.35814104  0.77198733  0.86988423     1.10660
C122        C  0.24914538  0.75120171  0.74819789     0.98210
C123        C  0.48361174  0.75900184  0.77012555     0.98290
N124        N  0.42549659  0.96696782  0.80240014    -0.07020
N125        N  0.45874330  0.00328167  0.78829579    -0.62390
N126        N  0.30461698  0.92888400  0.78098543    -0.06330
N127        N  0.26077606  0.93365282  0.75708414    -0.59120
N128        N  0.30843644  0.96490856  0.81533509    -0.07640
N129        N  0.26808343  0.99530868  0.81533692    -0.61960
N130        N  0.42350862  0.93077351  0.76800974    -0.06630
N131        N  0.45553458  0.94200840  0.72997883    -0.59140
Mn132      Mn  0.37002507  0.96772154  0.86712690     1.20190
Mn133      Mn  0.36301053  0.86926448  0.77245753     1.10090
Cl134      Cl  0.36574695  0.86977880  0.86773335    -0.87110
C135        C  0.47789336  0.98734824  0.74298010     0.95220
C136        C  0.23868238  0.97506748  0.77917615     0.95020
C137        C  0.37063542  0.36813498  0.87258498    -0.03640
C138        C  0.37084545  0.87424911  0.36909692    -0.03640
C139        C  0.87037253  0.37172242  0.37250138    -0.03640
N140        N  0.20563440  0.05640132  0.68616919    -0.07270
N141        N  0.23016909  0.05035981  0.72892318    -0.59390
N142        N  0.18262588  0.02123093  0.56584192    -0.06950
N143        N  0.19425234  0.98695737  0.53055702    -0.61510
N144        N  0.21930702  0.05586168  0.56931869    -0.06540
N145        N  0.25691823  0.04527001  0.53644394    -0.59360
N146        N  0.17114740  0.02004001  0.68118423    -0.06220
N147        N  0.17155424  0.98804113  0.71975712    -0.61870
C148        C  0.20811562  0.00784131  0.74927249     0.94910
C149        C  0.24048759  0.00254202  0.51175211     0.94690
N150        N  0.02646746  0.06072164  0.56313759    -0.07450
N151        N  0.99087064  0.05075713  0.53003086    -0.59960
N152        N  0.05399786  0.01555812  0.67643139    -0.05570
N153        N  0.04272017  0.97789326  0.70876937    -0.61220
N154        N  0.01792603  0.05127094  0.67718587    -0.07480
N155        N  0.98124714  0.03864457  0.71024761    -0.60230
N156        N  0.06268762  0.02516656  0.56284748    -0.05210
N157        N  0.05294463  0.98968681  0.52963532    -0.61300
Mn158      Mn  0.11806160  0.01914816  0.62105735     1.18440
C159        C  0.00849939  0.00678825  0.51003877     0.96990
C160        C  0.99754857  0.99301774  0.73011114     0.97660
N161        N  0.21512825  0.17828868  0.57481161    -0.07500
N162        N  0.25118711  0.18877984  0.54136546    -0.63810
N163        N  0.17838239  0.21409998  0.68808852    -0.06300
N164        N  0.19191008  0.25265430  0.71788413    -0.64480
N165        N  0.21392587  0.17765843  0.68905416    -0.07010
N166        N  0.25176100  0.19067091  0.72000198    -0.64070
N167        N  0.17890224  0.21407548  0.57440047    -0.05900
N168        N  0.18928271  0.25000320  0.54075387    -0.64760
Mn169      Mn  0.21541088  0.11654364  0.62991658     1.10660
C170        C  0.23414625  0.23328912  0.52099870     0.98210
C171        C  0.23763088  0.23752554  0.73816157     0.98290
N172        N  0.02074134  0.16977602  0.68108179    -0.07020
N173        N  0.98757421  0.17212194  0.71861961    -0.62390
N174        N  0.05633258  0.21702141  0.56834361    -0.06330
N175        N  0.04574600  0.25403409  0.53474944    -0.59120
N176        N  0.02154218  0.18042445  0.56565480    -0.07640
N177        N  0.98717954  0.19167799  0.53021603    -0.61960
N178        N  0.05685887  0.20469571  0.68528803    -0.06630
N179        N  0.04966943  0.23128121  0.72656122    -0.59140
Mn180      Mn  0.02016494  0.11593514  0.62147611     1.20190
Mn181      Mn  0.11707938  0.21429346  0.62902837     1.10090
Cl182      Cl  0.11789482  0.11673345  0.62496557    -0.87110
C183        C  0.00671843  0.21009004  0.74681530     0.95220
C184        C  0.00261080  0.23765129  0.51052750     0.95020
N185        N  0.02131040  0.67637990  0.05332197    -0.07270
N186        N  0.98412124  0.70922001  0.04065826    -0.59390
N187        N  0.06886171  0.56141820  0.02661049    -0.06950
N188        N  0.05753956  0.53100063  0.98925471    -0.61510
N189        N  0.03251788  0.56047037  0.06163897    -0.06540
N190        N  0.99553953  0.52921796  0.04938115    -0.59360
N191        N  0.05744937  0.67639973  0.01834203    -0.06220
N192        N  0.04589556  0.70886835  0.98123569    -0.61870
C193        C  0.00006529  0.72937003  0.99547100     0.94910
C194        C  0.01220850  0.51172084  0.00467575     0.94690
N195        N  0.22583448  0.57415694  0.05506990    -0.07450
N196        N  0.26427499  0.54207028  0.04383854    -0.59960
N197        N  0.17272639  0.68614542  0.02413849    -0.05570
N198        N  0.17101782  0.72565163  0.99317141    -0.61220
N199        N  0.20746290  0.69229538  0.05937458    -0.07480
N200        N  0.23052784  0.73672917  0.05301048    -0.60230
N201        N  0.18886162  0.56968941  0.02173674    -0.05210
N202        N  0.20128016  0.53491431  0.98734692    -0.61300
Mn203      Mn  0.12252320  0.62269828  0.02158534     1.18440
C204        C  0.24845447  0.51744535  0.00140639     0.96990
C205        C  0.20710956  0.75679814  0.01160587     0.97660
N206        N  0.02497611  0.56203942  0.17952821    -0.07500
N207        N  0.98794701  0.52921810  0.19264085    -0.63810
N208        N  0.06117458  0.68281223  0.20472077    -0.06300
N209        N  0.05601927  0.72623050  0.22909496    -0.64480
N210        N  0.02555721  0.67933432  0.16986889    -0.07010
N211        N  0.99495482  0.71953706  0.16997745    -0.64070
N212        N  0.05997966  0.56422290  0.21517771    -0.05900
N213        N  0.04694945  0.53313890  0.25341555    -0.64760
Mn214      Mn  0.02464035  0.61918224  0.11647158     1.10660
C215        C  0.00199629  0.51096223  0.23888495     0.98210
C216        C  0.01480074  0.74848088  0.20669061     0.98290
N217        N  0.21675998  0.69030958  0.17939213    -0.07020
N218        N  0.25207313  0.72444285  0.19293149    -0.62390
N219        N  0.18265781  0.56805667  0.20681159    -0.06330
N220        N  0.18891342  0.52569203  0.23354422    -0.59120
N221        N  0.21971308  0.57258529  0.17268810    -0.07640
N222        N  0.25225550  0.53389156  0.17569223    -0.61960
N223        N  0.18115549  0.68623139  0.21490237    -0.06630
N224        N  0.19165318  0.71738974  0.25302757    -0.59140
Mn225      Mn  0.21984526  0.63306498  0.11652239     1.20190
Mn226      Mn  0.12117128  0.62502569  0.21266531     1.10090
Cl227      Cl  0.12217001  0.62461047  0.11705876    -0.87110
C228        C  0.23598587  0.74151751  0.23906196     0.95220
C229        C  0.23193502  0.50481126  0.21309059     0.95020
N230        N  0.69225390  0.20721153  0.05814180    -0.07270
N231        N  0.73658828  0.23048674  0.05172467    -0.59390
N232        N  0.57003571  0.18731135  0.02110115    -0.06950
N233        N  0.53609063  0.19969432  0.98579719    -0.61510
N234        N  0.57339181  0.22405609  0.05475091    -0.06540
N235        N  0.54092013  0.26215528  0.04315076    -0.59360
N236        N  0.68651193  0.17201312  0.02335837    -0.06220
N237        N  0.72612261  0.17030823  0.99255259    -0.61870
C238        C  0.75699144  0.20677701  0.01073529     0.94910
C239        C  0.51768198  0.24628457  0.00001202     0.94690
N240        N  0.56135788  0.03145077  0.06292535    -0.07450
N241        N  0.52978088  0.99462709  0.05092103    -0.59960
N242        N  0.67719771  0.05623671  0.01848844    -0.05570
N243        N  0.70827619  0.04367966  0.98065620    -0.61220
N244        N  0.67647544  0.01971299  0.05310399    -0.07480
N245        N  0.70689646  0.98106809  0.03927040    -0.60230
N246        N  0.56215050  0.06773822  0.02776041    -0.05210
N247        N  0.53114536  0.05670764  0.99077985    -0.61300
Mn248      Mn  0.62342738  0.12134981  0.02159820     1.18440
C249        C  0.51179716  0.01152012  0.00636396     0.96990
C250        C  0.72705380  0.99684003  0.99413246     0.97660
N251        N  0.57349805  0.21835863  0.17246133    -0.07500
N252        N  0.53383646  0.24973377  0.17531014    -0.63810
N253        N  0.68898434  0.18138698  0.21319168    -0.06300
N254        N  0.72076745  0.19234889  0.25074048    -0.64480
N255        N  0.69168269  0.21717422  0.17768104    -0.07010
N256        N  0.72539716  0.25313897  0.19068649    -0.64070
N257        N  0.57022225  0.18149980  0.20693941    -0.05900
N258        N  0.52776399  0.18667827  0.23370613    -0.64760
Mn259      Mn  0.63328041  0.21915740  0.11565456     1.10660
C260        C  0.50548929  0.22888530  0.21299142     0.98210
C261        C  0.74430239  0.23669360  0.23599266     0.98290
N262        N  0.68251547  0.02561137  0.16907882    -0.07020
N263        N  0.72317935  0.99566237  0.16808694    -0.62390
N264        N  0.56754051  0.05955866  0.21611195    -0.06330
N265        N  0.53629427  0.04712623  0.25442210    -0.59120
N266        N  0.56581235  0.02385094  0.18122340    -0.07640
N267        N  0.53396958  0.98639966  0.19527392    -0.61960
N268        N  0.68648899  0.06120521  0.20381855    -0.06630
N269        N  0.73068576  0.05643332  0.22716462    -0.59140
Mn270      Mn  0.62109368  0.02376292  0.11704461     1.20190
Mn271      Mn  0.62811399  0.12088241  0.21237659     1.10090
Cl272      Cl  0.62611077  0.12142013  0.11690460    -0.87110
C273        C  0.75289546  0.01554244  0.20419036     0.95220
C274        C  0.51531984  0.00130540  0.24097359     0.95020
C275        C  0.61856983  0.62131578  0.11131754    -0.03640
C276        C  0.11842068  0.61855629  0.61269332    -0.03640
N277        N  0.31124535  0.27396724  0.42291929    -0.07270
N278        N  0.30330547  0.24070139  0.45968326    -0.59390
N279        N  0.27157828  0.30630699  0.30793193    -0.06950
N280        N  0.23656916  0.29734699  0.27290678    -0.61510
N281        N  0.30704775  0.26992985  0.30768374    -0.06540
N282        N  0.29674462  0.23550433  0.27239378    -0.59360
N283        N  0.27568758  0.31028549  0.42301520    -0.06220
N284        N  0.24235502  0.30277905  0.45981862    -0.61870
C285        C  0.26061990  0.25963975  0.48192632     0.94910
C286        C  0.25292539  0.25339973  0.25029727     0.94690
N287        N  0.31248009  0.45958883  0.30304274    -0.07450
N288        N  0.30630369  0.48972910  0.26348106    -0.59960
N289        N  0.27231567  0.43193133  0.42137094    -0.05570
N290        N  0.23636103  0.44386917  0.45534744    -0.61220
N291        N  0.30798524  0.46785377  0.41961281    -0.07480
N292        N  0.29665818  0.50487290  0.45241988    -0.60230
N293        N  0.27547035  0.42529953  0.30570924    -0.05210
N294        N  0.24264569  0.43169037  0.26862401    -0.61300
Mn295      Mn  0.27213102  0.36852714  0.36489615     1.18440
C296        C  0.26308909  0.47132768  0.24233592     0.96990
C297        C  0.25191987  0.48938158  0.47510561     0.97660
N298        N  0.42663545  0.27160380  0.30634531    -0.07500
N299        N  0.43242275  0.23936587  0.26874532    -0.63810
N300        N  0.46856740  0.30393721  0.42082873    -0.06300
N301        N  0.50524340  0.29244203  0.45394045    -0.64480
N302        N  0.43249590  0.26840320  0.42211070    -0.07010
N303        N  0.44403609  0.23227880  0.45617562    -0.64070
N304        N  0.46159442  0.30800050  0.30426820    -0.05900
N305        N  0.49144994  0.30215499  0.26454467    -0.64760
Mn306      Mn  0.36940382  0.26921899  0.36504022     1.10660
C307        C  0.47231886  0.25971446  0.24272263     0.98210
C308        C  0.48926766  0.24795381  0.47660317     0.98290
N309        N  0.43026558  0.46264018  0.41721325    -0.07020
N310        N  0.43980543  0.49788169  0.45104704    -0.62390
N311        N  0.46883024  0.42774285  0.30300022    -0.06330
N312        N  0.50636043  0.43901069  0.27042132    -0.59120
N313        N  0.43337857  0.46415408  0.30258114    -0.07640
N314        N  0.44632635  0.50095489  0.26979362    -0.61960
N315        N  0.46601289  0.42640844  0.41775798    -0.06630
N316        N  0.50096895  0.43606647  0.45201256    -0.59140
Mn317      Mn  0.37077409  0.46515187  0.36065329     1.20190
Mn318      Mn  0.46781094  0.36619920  0.36167537     1.10090
Cl319      Cl  0.37010212  0.36736539  0.36356845    -0.87110
C320        C  0.48365330  0.48043202  0.47208052     0.95220
C321        C  0.49155917  0.48447047  0.24915838     0.95020
N322        N  0.52811360  0.67953599  0.67912277    -0.07270
N323        N  0.49787475  0.68537420  0.71862348    -0.59390
N324        N  0.55792984  0.71986001  0.56172322    -0.06950
N325        N  0.54699583  0.75630895  0.52798260    -0.61510
N326        N  0.52190895  0.68431394  0.56224636    -0.06540
N327        N  0.48574697  0.69628808  0.52860034    -0.59360
N328        N  0.56282618  0.71622570  0.67718889    -0.06220
N329        N  0.55661254  0.74846531  0.71467367    -0.61870
C330        C  0.51667947  0.72800359  0.74045996     0.94910
C331        C  0.50186302  0.74146344  0.50709518     0.94690
N332        N  0.71491837  0.68097176  0.56160666    -0.07450
N333        N  0.74782365  0.68841824  0.52445046    -0.59960
N334        N  0.68225596  0.72140927  0.67555500    -0.05570
N335        N  0.69300082  0.75840783  0.70790714    -0.61220
N336        N  0.71834942  0.68571119  0.67652623    -0.07480
N337        N  0.75421741  0.69761905  0.70986470    -0.60230
N338        N  0.67860860  0.71651386  0.56114964    -0.05210
N339        N  0.68564653  0.74929485  0.52375678    -0.61300
Mn340      Mn  0.62020595  0.71996083  0.61870483     1.18440
C341        C  0.72858375  0.73077586  0.50163572     0.96990
C342        C  0.73796158  0.74317253  0.72934987     0.97660
N343        N  0.52673986  0.56166672  0.56479821    -0.07500
N344        N  0.49228350  0.55178682  0.53019272    -0.63810
N345        N  0.55828293  0.52280172  0.67967522    -0.06300
N346        N  0.54522146  0.48435264  0.71057448    -0.64480
N347        N  0.52209684  0.55854424  0.67952982    -0.07010
N348        N  0.48389009  0.54513630  0.71064666    -0.64070
N349        N  0.56306673  0.52599078  0.56534430    -0.05900
N350        N  0.55430637  0.49082241  0.53115976    -0.64760
Mn351      Mn  0.52301370  0.62134655  0.62131147     1.10660
C352        C  0.51038681  0.50787424  0.50988799     0.98210
C353        C  0.49892365  0.49889084  0.73008769     0.98290
N354        N  0.71542945  0.56600995  0.67955575    -0.07020
N355        N  0.74741674  0.56011511  0.71745056    -0.62390
N356        N  0.68550102  0.52335913  0.56520201    -0.06330
N357        N  0.69809542  0.48631775  0.53301000    -0.59120
N358        N  0.72046178  0.55998739  0.56368610    -0.07640
N359        N  0.75708812  0.54878944  0.53011727    -0.61960
N360        N  0.67893439  0.53108938  0.68145508    -0.06630
N361        N  0.68460316  0.50114794  0.72123076    -0.59140
Mn362      Mn  0.71896648  0.62300364  0.62014665     1.20190
Mn363      Mn  0.62182876  0.52429358  0.62284831     1.10090
Cl364      Cl  0.62087555  0.62199810  0.62017902    -0.87110
C365        C  0.72696132  0.52018234  0.74340186     0.95220
C366        C  0.74245112  0.50294159  0.51067269     0.95020
C367        C  0.62242960  0.11710817  0.61378206    -0.03640
C368        C  0.12169312  0.12357260  0.11684637    -0.03640
C369        C  0.16813732  0.22777329  0.21547597    -0.27470
C370        C  0.22191284  0.22483627  0.21187903    -0.15540
C371        C  0.24343696  0.19422616  0.17286451     0.35090
C372        C  0.21082845  0.16421046  0.14236844    -0.26910
C373        C  0.15636411  0.16170914  0.14946170    -0.16150
C374        C  0.13532493  0.19746076  0.18589585     0.36180
N375        N  0.08109103  0.20351803  0.19627633    -0.90400
H376        H  0.15077578  0.25253410  0.24380720     0.17290
H377        H  0.22952890  0.14375893  0.11193281     0.17280
N378        N  0.29787360  0.19354748  0.16156452    -0.89430
H379        H  0.07485234  0.19530577  0.23470048     0.34660
H380        H  0.05924787  0.17687712  0.17742564     0.39760
H381        H  0.31776125  0.22062712  0.18267264     0.39380
H382        H  0.30256610  0.20546165  0.12386158     0.34260
C383        C  0.57508072  0.21674276  0.50816412    -0.27470
C384        C  0.52119880  0.21678854  0.51373387    -0.15540
C385        C  0.49992217  0.18514400  0.55267454     0.35090
C386        C  0.53244654  0.15300416  0.58219957    -0.26910
C387        C  0.58727422  0.15255151  0.57760315    -0.16150
C388        C  0.60778169  0.18535867  0.53798762     0.36180
N389        N  0.66157113  0.18753018  0.52516101    -0.90400
H390        H  0.59239400  0.24024321  0.47846808     0.17290
H391        H  0.51295981  0.12869650  0.60945933     0.17280
N392        N  0.44564937  0.18518064  0.56483256    -0.89430
H393        H  0.67299362  0.15318141  0.50816105     0.34660
H394        H  0.68366802  0.19493259  0.55700192     0.39760
H395        H  0.42591495  0.21415622  0.54534839     0.39380
H396        H  0.44181381  0.19493417  0.60302850     0.34260
C397        C  0.15101566  0.52948667  0.57576621    -0.27470
C398        C  0.15741379  0.58373223  0.57988575    -0.15540
C399        C  0.20161323  0.60444968  0.55364238     0.35090
C400        C  0.23201542  0.57291628  0.52104489    -0.26910
C401        C  0.22127214  0.52043155  0.51353799    -0.16150
C402        C  0.18093543  0.49846600  0.54273972     0.36180
N403        N  0.17032649  0.44422734  0.53923998    -0.90400
H404        H  0.12261473  0.50976435  0.59849005     0.17290
H405        H  0.26404491  0.59001487  0.50044429     0.17280
N406        N  0.21666157  0.65727481  0.56056525    -0.89430
H407        H  0.13860681  0.43400594  0.56183675     0.34660
H408        H  0.20213816  0.42430803  0.55390122     0.39760
H409        H  0.18884598  0.68140796  0.54448989     0.39380
H410        H  0.25123291  0.66525587  0.54144289     0.34260
C411        C  0.58273694  0.53051695  0.14209880    -0.27470
C412        C  0.58754987  0.58479147  0.15078816    -0.15540
C413        C  0.55710246  0.60312131  0.19238718     0.35090
C414        C  0.52721702  0.56953021  0.22293045    -0.26910
C415        C  0.52456125  0.51660953  0.21428572    -0.16150
C416        C  0.55276084  0.49689248  0.17265727     0.36180
N417        N  0.55034242  0.44358511  0.15810645    -0.90400
H418        H  0.59901715  0.51294546  0.10875028     0.17290
H419        H  0.50520138  0.58567969  0.25411680     0.17280
N420        N  0.55341459  0.65631530  0.20364406    -0.89430
H421        H  0.53555579  0.44241451  0.12139668     0.34660
H422        H  0.52447936  0.42264462  0.18046422     0.39760
H423        H  0.51470374  0.66758915  0.20088695     0.39380
H424        H  0.56522154  0.66164146  0.24101920     0.34260
C425        C  0.75133820  0.29870222  0.30753106    -0.27470
C426        C  0.77627945  0.26918031  0.27078573    -0.15540
C427        C  0.83057492  0.27029948  0.26909425     0.35090
C428        C  0.85823855  0.30197567  0.30320065    -0.26910
C429        C  0.83378280  0.33473909  0.33960913    -0.16150
C430        C  0.77801924  0.33059264  0.34142872     0.36180
N431        N  0.74524845  0.35628938  0.37690745    -0.90400
H432        H  0.70956851  0.29708561  0.31002392     0.17290
H433        H  0.89996113  0.30260197  0.30028801     0.17280
N434        N  0.85764254  0.23992265  0.23214576    -0.89430
H435        H  0.74638707  0.39605199  0.37154872     0.34660
H436        H  0.75331265  0.34398771  0.41361954     0.39760
H437        H  0.85063609  0.20110488  0.24063834     0.39380
H438        H  0.89746929  0.24526905  0.23511274     0.34260
C439        C  0.93428494  0.44893459  0.35447108    -0.27470
C440        C  0.90238414  0.40980085  0.33445162    -0.15540
C441        C  0.89675171  0.41421759  0.28019767     0.35090
C442        C  0.93128688  0.44456664  0.25036930    -0.26910
C443        C  0.96846841  0.47658478  0.27199088    -0.16150
C444        C  0.96800278  0.48024558  0.32514211     0.36180
N445        N  0.99894330  0.51853083  0.34946975    -0.90400
H446        H  0.92755948  0.46165811  0.39217217     0.17290
H447        H  0.92675530  0.44521705  0.20959712     0.17280
N448        N  0.85212406  0.39519538  0.25494119    -0.89430
H449        H  0.99506500  0.51594865  0.38886058     0.34660
H450        H  0.98461309  0.55476488  0.33877510     0.39760
H451        H  0.86447258  0.37253206  0.22456443     0.39380
H452        H  0.83174944  0.42666218  0.23998608     0.34260
C453        C  0.90571088  0.28125918  0.40703174    -0.27470
C454        C  0.90979863  0.33634163  0.40580100    -0.15540
C455        C  0.94557109  0.35603490  0.44248009     0.35090
C456        C  0.97755214  0.32303144  0.47178905    -0.26910
C457        C  0.97227139  0.26945937  0.47227953    -0.16150
C458        C  0.93514505  0.24871183  0.43920507     0.36180
N459        N  0.92539295  0.19442410  0.43753266    -0.90400
H460        H  0.87642019  0.26161214  0.38610851     0.17290
H461        H  0.00382158  0.34037449  0.49839034     0.17280
N462        N  0.94544060  0.40884918  0.45679929    -0.89430
H463        H  0.91078710  0.18233296  0.47264524     0.34660
H464        H  0.96014638  0.17519683  0.43012255     0.39760
H465        H  0.98309872  0.42288412  0.45300397     0.39380
H466        H  0.93482079  0.41126069  0.49499832     0.34260
C467        C  0.79233659  0.42288971  0.49152996    -0.27470
C468        C  0.77481406  0.47133250  0.47509617    -0.15540
C469        C  0.78826247  0.48770499  0.42538772     0.35090
C470        C  0.81906186  0.45564843  0.39425320    -0.26910
C471        C  0.83747707  0.40636785  0.41021344    -0.16150
C472        C  0.82271884  0.39052002  0.46045530     0.36180
N473        N  0.83542564  0.34029647  0.47981883    -0.90400
H474        H  0.78184340  0.40949209  0.52922893     0.17290
H475        H  0.82660780  0.46907819  0.35600648     0.17280
N476        N  0.77019510  0.53578639  0.40427454    -0.89430
H477        H  0.85633862  0.34478436  0.51319783     0.34660
H478        H  0.80122730  0.32103442  0.48906594     0.39760
H479        H  0.74689727  0.55591459  0.42976367     0.39380
H480        H  0.74680856  0.52717236  0.37340667     0.34260
C481        C  0.29180293  0.81399748  0.35395270    -0.27470
C482        C  0.33184028  0.84459195  0.33211431    -0.15540
C483        C  0.33092250  0.84779567  0.27759370     0.35090
C484        C  0.30105823  0.81270100  0.24918770    -0.26910
C485        C  0.26602344  0.77840862  0.27191006    -0.16150
C486        C  0.25999077  0.78086990  0.32518990     0.36180
N487        N  0.22294209  0.74842846  0.35058611    -0.90400
H488        H  0.28774618  0.81324958  0.39482326     0.17290
H489        H  0.30337586  0.81395411  0.20820460     0.17280
N490        N  0.35626745  0.88872932  0.25030140    -0.89430
H491        H  0.22224924  0.75569695  0.38946731     0.34660
H492        H  0.23539102  0.71026644  0.34657270     0.39760
H493        H  0.33704524  0.92298454  0.25940692     0.39380
H494        H  0.35280091  0.88446462  0.21113919     0.34260
C495        C  0.44696947  0.88657230  0.30621929    -0.27470
C496        C  0.40827559  0.91046226  0.33658307    -0.15540
C497        C  0.40677210  0.96578818  0.33444033     0.35090
C498        C  0.44273823  0.99377115  0.30448348    -0.26910
C499        C  0.47973640  0.96936744  0.27397842    -0.16150
C500        C  0.48176043  0.91487256  0.27507970     0.36180
N501        N  0.51953891  0.88812582  0.24490906    -0.90400
H502        H  0.44921991  0.84485511  0.30597439     0.17290
H503        H  0.44032135  0.03551276  0.30374174     0.17280
N504        N  0.36784480  0.99486779  0.36026963    -0.89430
H505        H  0.51568423  0.84820912  0.24930539     0.34660
H506        H  0.55595899  0.89751773  0.25878658     0.39760
H507        H  0.34712658  0.01626119  0.33343772     0.39380
H508        H  0.38599996  0.02063756  0.38451937     0.34260
C509        C  0.28508975  0.92241095  0.39633035    -0.27470
C510        C  0.33685677  0.90781161  0.40851334    -0.15540
C511        C  0.35577159  0.93057006  0.45431332     0.35090
C512        C  0.32364752  0.96092488  0.48585917    -0.26910
C513        C  0.27231825  0.97206975  0.47428853    -0.16150
C514        C  0.25312869  0.95306236  0.42796980     0.36180
N515        N  0.20205979  0.96537395  0.41037954    -0.90400
H516        H  0.26882902  0.91211960  0.36029239     0.17290
H517        H  0.33960921  0.97621537  0.52043404     0.17280
N518        N  0.40825214  0.92608975  0.46925043    -0.89430
H519        H  0.20597251  0.98560943  0.37612053     0.34660
H520        H  0.18270950  0.99026929  0.43485946     0.39760
H521        H  0.40942855  0.90933579  0.50542934     0.39380
H522        H  0.42406039  0.96305158  0.47116109     0.34260
C523        C  0.42915107  0.75155117  0.44428061    -0.27470
C524        C  0.47185232  0.77294720  0.46849391    -0.15540
C525        C  0.48643081  0.82324699  0.45333910     0.35090
C526        C  0.45571326  0.85151162  0.41861890    -0.26910
C527        C  0.40765550  0.83387222  0.39962822    -0.16150
C528        C  0.39994634  0.77927707  0.40748818     0.36180
N529        N  0.36819474  0.74957598  0.37464359    -0.90400
H530        H  0.42028648  0.71139852  0.45178955     0.17290
H531        H  0.46902408  0.88968061  0.40837387     0.17280
N532        N  0.53198715  0.84648524  0.47370864    -0.89430
H533        H  0.36663195  0.71083287  0.38588404     0.34660
H534        H  0.38551151  0.75036212  0.33874097     0.39760
H535        H  0.52461117  0.85387007  0.51194998     0.39380
H536        H  0.53908606  0.88232933  0.45663213     0.34260
C537        C  0.30142361  0.24697577  0.80898988    -0.27470
C538        C  0.27117757  0.27036014  0.77145820    -0.15540
C539        C  0.27492782  0.32435390  0.76533137     0.35090
C540        C  0.30717355  0.35326059  0.79762618    -0.26910
C541        C  0.33618631  0.33091315  0.83805069    -0.16150
C542        C  0.33331353  0.27556592  0.84176961     0.36180
N543        N  0.36233126  0.24664555  0.87814086    -0.90400
H544        H  0.29999972  0.20541087  0.81351097     0.17290
H545        H  0.30880575  0.39467397  0.79205420     0.17280
N546        N  0.24664874  0.34993225  0.72569470    -0.89430
H547        H  0.38623136  0.22074696  0.85879994     0.34660
H548        H  0.33659685  0.22538734  0.90069162     0.39760
H549        H  0.26132918  0.33683087  0.69110956     0.39380
H550        H  0.25305758  0.38969841  0.72630421     0.34260
C551        C  0.35695268  0.42911071  0.95073275    -0.27470
C552        C  0.33498111  0.40508799  0.90763821    -0.15540
C553        C  0.28001509  0.41296517  0.90394166     0.35090
C554        C  0.25434957  0.45067652  0.93334659    -0.26910
C555        C  0.27887340  0.47791916  0.97178566    -0.16150
C556        C  0.33070439  0.46519923  0.98169873     0.36180
N557        N  0.35688794  0.48826478  0.02353564    -0.90400
H558        H  0.39437308  0.41690329  0.96365159     0.17290
H559        H  0.21338482  0.45661346  0.92749281     0.17280
N560        N  0.24760356  0.38014221  0.87512149    -0.89430
H561        H  0.39567081  0.47698617  0.02424505     0.34660
H562        H  0.34009795  0.47373531  0.05682841     0.39760
H563        H  0.22606982  0.40309378  0.85015768     0.39380
H564        H  0.22187118  0.36154119  0.89985180     0.34260
C565        C  0.45796654  0.32132985  0.88941378    -0.27470
C566        C  0.40797297  0.33485959  0.90752580    -0.15540
C567        C  0.39410872  0.31426092  0.95663769     0.35090
C568        C  0.43129682  0.28882686  0.98687760    -0.26910
C569        C  0.48100881  0.27778106  0.96867238    -0.16150
C570        C  0.49375771  0.29292286  0.91874489     0.36180
N571        N  0.54362738  0.28010265  0.89799119    -0.90400
H572        H  0.46954657  0.33176144  0.85133917     0.17290
H573        H  0.41999125  0.27439926  0.02397836     0.17280
N574        N  0.34182629  0.31275389  0.97507836    -0.89430
H575        H  0.54824494  0.29619441  0.86178722     0.34660
H576        H  0.54500427  0.24013755  0.89337825     0.39760
H577        H  0.31509299  0.31737000  0.94608819     0.39380
H578        H  0.33673242  0.34131845  0.00231262     0.34260
C579        C  0.46300749  0.47841071  0.81562812    -0.27470
C580        C  0.46650741  0.46587172  0.76450989    -0.15540
C581        C  0.44278057  0.41987770  0.74870743     0.35090
C582        C  0.41443537  0.38966293  0.78385584    -0.26910
C583        C  0.40631527  0.40354085  0.83559211    -0.16150
C584        C  0.43698151  0.44662923  0.85146281     0.36180
N585        N  0.44750435  0.45555130  0.90370115    -0.90400
H586        H  0.48427983  0.51165678  0.82849456     0.17290
H587        H  0.40053641  0.35339437  0.76976002     0.17280
N588        N  0.44668021  0.40195149  0.69739716    -0.89430
H589        H  0.46777756  0.48985251  0.90888247     0.34660
H590        H  0.47179061  0.42581604  0.91613993     0.39760
H591        H  0.46767071  0.42725986  0.67433350     0.39380
H592        H  0.40935783  0.40113961  0.68265117     0.34260
C593        C  0.22072607  0.66522969  0.71440788    -0.27470
C594        C  0.21476068  0.71911093  0.71441747    -0.15540
C595        C  0.17795199  0.74049144  0.68040561     0.35090
C596        C  0.15021321  0.70812336  0.64738602    -0.26910
C597        C  0.15357664  0.65334032  0.64863075    -0.16150
C598        C  0.19171366  0.63250050  0.68283745     0.36180
N599        N  0.20188767  0.57819370  0.68842190    -0.90400
H600        H  0.24890382  0.64779207  0.73949500     0.17290
H601        H  0.12482647  0.72739897  0.62105436     0.17280
N602        N  0.16608401  0.79477603  0.67873011    -0.89430
H603        H  0.23808044  0.57065327  0.67228772     0.34660
H604        H  0.17509647  0.55527341  0.67041224     0.39760
H605        H  0.18354537  0.81453882  0.70807909     0.39380
H606        H  0.12647056  0.79884158  0.68559117     0.34260
C607        C  0.18930916  0.05472549  0.99955258    -0.27470
C608        C  0.22667724  0.02425508  0.02349251    -0.15540
C609        C  0.22699209  0.02330795  0.07717401     0.35090
C610        C  0.19237135  0.05443397  0.10478116    -0.26910
C611        C  0.15636277  0.08812692  0.08123307    -0.16150
C612        C  0.15310676  0.08436968  0.02705199     0.36180
N613        N  0.11160086  0.10696355  0.99894180    -0.90400
H614        H  0.18662826  0.05396912  0.95861038     0.17290
H615        H  0.19472040  0.05349113  0.14573955     0.17280
N616        N  0.26304171  0.99243846  0.10513354    -0.89430
H617        H  0.09187733  0.07750049  0.98061777     0.34660
H618        H  0.12736299  0.13121397  0.97102765     0.39760
H619        H  0.30042235  0.00206438  0.09336970     0.39380
H620        H  0.25625851  0.95360801  0.09752514     0.34260
C621        C  0.49557724  0.66994795  0.03657396    -0.27470
C622        C  0.51395412  0.71443478  0.01229765    -0.15540
C623        C  0.56640938  0.72775129  0.01874197     0.35090
C624        C  0.59830344  0.69675128  0.04979752    -0.26910
C625        C  0.57953487  0.65348544  0.07770386    -0.16150
C626        C  0.52705361  0.63936220  0.06834946     0.36180
N627        N  0.50540872  0.59259740  0.08804457    -0.90400
H628        H  0.45583652  0.65858617  0.03088134     0.17290
H629        H  0.63863789  0.70707399  0.05248904     0.17280
N630        N  0.58911186  0.77193246  0.99405995    -0.89430
H631        H  0.49395872  0.56991029  0.05762722     0.34660
H632        H  0.47260271  0.60186884  0.10946135     0.39760
H633        H  0.56256096  0.79159738  0.97141461     0.39380
H634        H  0.61806754  0.75852335  0.96966294     0.34260
C635        C  0.52512066  0.07026877  0.72184510    -0.27470
C636        C  0.51549506  0.01834243  0.71034082    -0.15540
C637        C  0.54221097  0.99784913  0.66797062     0.35090
C638        C  0.57820222  0.02808197  0.64040430    -0.26910
C639        C  0.58607364  0.08153765  0.64926783    -0.16150
C640        C  0.55820205  0.10181614  0.69183356     0.36180
N641        N  0.56221119  0.15515973  0.70465826    -0.90400
H642        H  0.50537243  0.08752182  0.75382791     0.17290
H643        H  0.59953298  0.00787263  0.61176603     0.17280
N644        N  0.53399990  0.94610931  0.65145069    -0.89430
H645        H  0.57570045  0.15745369  0.74179933     0.34660
H646        H  0.52531417  0.17158180  0.70354565     0.39760
H647        H  0.49537896  0.94229614  0.64101382     0.39380
H648        H  0.54216037  0.92070973  0.68132306     0.34260
C649        C  0.71579528  0.16265121  0.72373075    -0.27470
C650        C  0.71488936  0.21657456  0.71878564    -0.15540
C651        C  0.68173648  0.23837489  0.68197869     0.35090
C652        C  0.65265938  0.20618379  0.65026133    -0.26910
C653        C  0.65594568  0.15130668  0.65141289    -0.16150
C654        C  0.68752540  0.12990723  0.69132027     0.36180
N655        N  0.69298776  0.07526143  0.70020255    -0.90400
H656        H  0.73998318  0.14535668  0.75264097     0.17290
H657        H  0.62677298  0.22579450  0.62471800     0.17280
N658        N  0.67606244  0.29328669  0.67544337    -0.89430
H659        H  0.73232265  0.06616582  0.69904828     0.34660
H660        H  0.67676402  0.05367350  0.67153974     0.39760
H661        H  0.69889440  0.31381845  0.70052593     0.39380
H662        H  0.63775869  0.30280296  0.68408491     0.34260
C663        C  0.00408078  0.19649545  0.05204671    -0.27470
C664        C  0.02983813  0.23013991  0.01872564    -0.15540
C665        C  0.08431069  0.23110992  0.02010503     0.35090
C666        C  0.11113753  0.19806778  0.05336056    -0.26910
C667        C  0.08598829  0.16089166  0.08466862    -0.16150
C668        C  0.03061569  0.16263024  0.08490555     0.36180
N669        N  0.00000194  0.13243687  0.11937686    -0.90400
H670        H  0.96224242  0.19647246  0.05292912     0.17290
H671        H  0.15291289  0.19968827  0.05285336     0.17280
N672        N  0.11376503  0.26573512  0.98889348    -0.89430
H673        H  0.97425289  0.11042414  0.09837686     0.34660
H674        H  0.97792781  0.15750498  0.14163110     0.39760
H675        H  0.10145223  0.30344205  0.99600728     0.39380
H676        H  0.10702186  0.25712393  0.95094858     0.34260
C677        C  0.67808716  0.54210906  0.99472637    -0.27470
C678        C  0.71527643  0.51121502  0.01854770    -0.15540
C679        C  0.71993287  0.51544168  0.07171214     0.35090
C680        C  0.68813722  0.54975040  0.09879359    -0.26910
C681        C  0.65234283  0.58416516  0.07538961    -0.16150
C682        C  0.64680458  0.57764001  0.02155203     0.36180
N683        N  0.60839257  0.60445438  0.99284611    -0.90400
H684        H  0.67279601  0.53858261  0.95422244     0.17290
H685        H  0.69172966  0.54992776  0.13967776     0.17280
N686        N  0.75550253  0.48435230  0.10004423    -0.89430
H687        H  0.58413863  0.57730136  0.97638786     0.34660
H688        H  0.62678721  0.62522334  0.96380908     0.39760
H689        H  0.79304399  0.49342701  0.08845192     0.39380
H690        H  0.74821725  0.44551338  0.09277809     0.34260
C691        C  0.00775873  0.52083620  0.65683557    -0.27470
C692        C  0.01298713  0.51957974  0.70968922    -0.15540
C693        C  0.04870069  0.55369128  0.73123909     0.35090
C694        C  0.07966391  0.58570517  0.69986472    -0.26910
C695        C  0.07935004  0.58381153  0.64592398    -0.16150
C696        C  0.03951764  0.55172979  0.62496138     0.36180
N697        N  0.03026895  0.54742728  0.57154527    -0.90400
H698        H  0.97963853  0.49588271  0.63949723     0.17290
H699        H  0.10371812  0.61271504  0.71917955     0.17280
N700        N  0.05319956  0.55643079  0.78542192    -0.89430
H701        H  0.99544167  0.56624940  0.56364605     0.34660
H702        H  0.05879120  0.56419314  0.54920606     0.39760
H703        H  0.01831392  0.57088968  0.79965161     0.39380
H704        H  0.08182538  0.58252959  0.79569821     0.34260
C705        C  0.67266023  0.73817629  0.19439100    -0.27470
C706        C  0.72493643  0.72572610  0.20066681    -0.15540
C707        C  0.74478901  0.68548469  0.17023664     0.35090
C708        C  0.71079657  0.65467232  0.14181787    -0.26910
C709        C  0.65599338  0.66122177  0.14092460    -0.16150
C710        C  0.63941108  0.70936308  0.16312034     0.36180
N711        N  0.59124265  0.73346024  0.15005870    -0.90400
H712        H  0.65721624  0.77207911  0.21290826     0.17290
H713        H  0.73017954  0.62786342  0.11767223     0.17280
N714        N  0.79935861  0.67579592  0.16476748    -0.89430
H715        H  0.57292761  0.74617414  0.18312586     0.34660
H716        H  0.59971352  0.76690101  0.12920468     0.39760
H717        H  0.82095306  0.70639148  0.17830495     0.39380
H718        H  0.80802906  0.67573670  0.12601006     0.34260
C719        C  0.09787430  0.08473904  0.20607961    -0.27470
C720        C  0.09155870  0.08422569  0.15265068    -0.15540
C721        C  0.06002439  0.04357009  0.13365983     0.35090
C722        C  0.02961352  0.01332436  0.16740049    -0.26910
C723        C  0.03148128  0.02000965  0.21995291    -0.16150
C724        C  0.06778140  0.05479064  0.23945991     0.36180
N725        N  0.07531354  0.06129052  0.29299803    -0.90400
H726        H  0.12653816  0.10847849  0.22356970     0.17290
H727        H  0.00412094  0.98424220  0.15249319     0.17280
N728        N  0.05956461  0.03191658  0.08051010    -0.89430
H729        H  0.11297450  0.04948009  0.30130073     0.34660
H730        H  0.05081314  0.03802723  0.31474160     0.39760
H731        H  0.04164730  0.06209488  0.06108703     0.39380
H732        H  0.03743683  0.99913296  0.07368307     0.34260
C733        C  0.00657744  0.70958540  0.55979597    -0.27470
C734        C  0.01782509  0.71299358  0.50778673    -0.15540
C735        C  0.06146358  0.68642180  0.48956469     0.35090
C736        C  0.09219352  0.65654720  0.52295852    -0.26910
C737        C  0.08310181  0.65359619  0.57622856    -0.16150
C738        C  0.03823707  0.68100694  0.59405203     0.36180
N739        N  0.02326188  0.67839725  0.64660838    -0.90400
H740        H  0.97299848  0.73001617  0.57402752     0.17290
H741        H  0.12291678  0.63480415  0.50569994     0.17280
N742        N  0.07463549  0.68984315  0.43661575    -0.89430
H743        H  0.98811723  0.69739726  0.65267266     0.34660
H744        H  0.05053180  0.69802189  0.66782133     0.39760
H745        H  0.04510752  0.67226839  0.41637003     0.39380
H746        H  0.10844264  0.66914469  0.42880093     0.34260
C747        C  0.73987920  0.05223612  0.53790005    -0.27470
C748        C  0.71458892  0.02068891  0.50323274    -0.15540
C749        C  0.66006930  0.02254402  0.50293564     0.35090
C750        C  0.63285511  0.05405517  0.53805405    -0.26910
C751        C  0.65757240  0.08336516  0.57614705    -0.16150
C752        C  0.71304251  0.08385888  0.57285154     0.36180
N753        N  0.74343910  0.11915878  0.60113352    -0.90400
H754        H  0.78168728  0.05348028  0.53724405     0.17290
H755        H  0.59114077  0.05549204  0.53591113     0.17280
N756        N  0.63217629  0.99351334  0.46610211    -0.89430
H757        H  0.77098186  0.09804577  0.62143932     0.34660
H758        H  0.76324926  0.14312997  0.57561042     0.39760
H759        H  0.64122334  0.00885312  0.43037035     0.39380
H760        H  0.59238591  0.99835199  0.47109536     0.34260
C761        C  0.82375561  0.95427020  0.89265490    -0.27470
C762        C  0.82574013  0.89998958  0.89958410    -0.15540
C763        C  0.78684441  0.87863983  0.93268192     0.35090
C764        C  0.75713195  0.91086192  0.96393238    -0.26910
C765        C  0.76062799  0.96459861  0.96083766    -0.16150
C766        C  0.79331226  0.98652389  0.92360188     0.36180
N767        N  0.79611666  0.04162823  0.91752045    -0.90400
H768        H  0.84593848  0.97272041  0.86306324     0.17290
H769        H  0.72975037  0.89340498  0.99010087     0.17280
N770        N  0.77607298  0.82457936  0.93638901    -0.89430
H771        H  0.82142149  0.05167895  0.88804800     0.34660
H772        H  0.81194020  0.05645068  0.95062813     0.39760
H773        H  0.80946000  0.80372982  0.94444442     0.39380
H774        H  0.75985800  0.81221876  0.90260871     0.34260
C775        C  0.90880463  0.88761088  0.78166854    -0.27470
C776        C  0.90385779  0.89931369  0.83414505    -0.15540
C777        C  0.93702586  0.93991037  0.85161708     0.35090
C778        C  0.96618893  0.96966160  0.81677402    -0.26910
C779        C  0.96622820  0.95991505  0.76482594    -0.16150
C780        C  0.93821023  0.91725230  0.74733904     0.36180
N781        N  0.93778438  0.90286104  0.69481789    -0.90400
H782        H  0.89044035  0.85424983  0.76581754     0.17290
H783        H  0.98955826  0.00095738  0.83077896     0.17280
N784        N  0.94250385  0.95319132  0.90399543    -0.89430
H785        H  0.95536241  0.86661791  0.69199120     0.34660
H786        H  0.95916819  0.92807300  0.67201072     0.39760
H787        H  0.91910936  0.93114937  0.92735166     0.39380
H788        H  0.93017289  0.99136367  0.90832975     0.34260
C789        C  0.79785484  0.85514186  0.80178997    -0.27470
C790        C  0.83183109  0.82992559  0.83603750    -0.15540
C791        C  0.82987797  0.77467350  0.83687547     0.35090
C792        C  0.79963845  0.74809328  0.80143839    -0.26910
C793        C  0.76798077  0.77395572  0.76661714    -0.16150
C794        C  0.76666599  0.82844985  0.76776791     0.36180
N795        N  0.73552074  0.85828385  0.73369378    -0.90400
H796        H  0.79668406  0.89690717  0.80041361     0.17290
H797        H  0.79981384  0.70628966  0.80232980     0.17280
N798        N  0.85517932  0.74444024  0.87495083    -0.89430
H799        H  0.69671516  0.84983172  0.74066098     0.34660
H800        H  0.74516725  0.84831377  0.69652468     0.39760
H801        H  0.87980581  0.71822018  0.85690721     0.39380
H802        H  0.82724441  0.72325571  0.89483031     0.34260
C803        C  0.94275784  0.80380564  0.88290666    -0.27470
C804        C  0.90400672  0.83451709  0.90610772    -0.15540
C805        C  0.90437014  0.83528938  0.96053715     0.35090
C806        C  0.93529420  0.80028138  0.98797340    -0.26910
C807        C  0.96961339  0.76663095  0.96400861    -0.16150
C808        C  0.97456766  0.76962522  0.91072427     0.36180
N809        N  0.01038191  0.73660140  0.88453796    -0.90400
H810        H  0.94583928  0.80378064  0.84199458     0.17290
H811        H  0.93324119  0.80045183  0.02899957     0.17280
N812        N  0.87569553  0.87228472  0.98931777    -0.89430
H813        H  0.01006224  0.74428622  0.84559265     0.34660
H814        H  0.99752530  0.69868101  0.88925334     0.39760
H815        H  0.90167805  0.89380174  0.01053608     0.39380
H816        H  0.85180726  0.85240731  0.01488462     0.34260
loop_ 
_geom_bond_atom_site_label_1 
_geom_bond_atom_site_label_2 
_geom_bond_distance 
_geom_bond_site_symmetry_2 
_ccdc_geom_bond_type 
C1          C762   1.583       .  S
C1          C776   1.601       .  S
C1          C790   1.585       .  S
C1          C804   1.582       .  S
N2            N3   1.331       .  A
N2            N8   1.316       .  A
N2          Mn31   2.252       .  S
N3           C10   1.362       .  A
N4            N6   1.310       .  A
N4            N5   1.308   1_565  A
N4          Mn20   2.110       .  S
N5           C11   1.340   1_545  A
N6            N7   1.307       .  A
N6          Mn31   2.158       .  S
N7           C11   1.349       .  A
N8            N9   1.326   1_565  A
N8          Mn20   2.226       .  S
N9           C10   1.358   1_545  A
C10         C748   1.517   1_565  S
C11         C273   1.402   1_565  S
N12          N18   1.313       .  A
N12          N13   1.324   1_655  A
N12         Mn42   2.205       .  S
N13          C21   1.353   1_455  A
N14          N15   1.304       .  A
N14          N16   1.313       .  A
N14         Mn20   2.119       .  S
N15          C22   1.338       .  A
N16          N17   1.304       .  A
N16         Mn42   2.119       .  S
N17          C22   1.338       .  A
N18          N19   1.325   1_565  A
N18         Mn20   2.220       .  S
N19          C21   1.356   1_545  A
Mn20        Cl44   2.534       .  S
C21         C723   1.488   1_665  S
C22         C159   1.388   1_665  S
N23          N24   1.326       .  A
N23          N29   1.315       .  A
N23         Mn31   2.224       .  S
N24          C32   1.358       .  A
N25          N27   1.317       .  A
N25          N26   1.307       .  A
N25         Mn43   2.144       .  S
N26          C33   1.341       .  A
N27          N28   1.310       .  A
N27         Mn31   2.160       .  S
N28          C33   1.345       .  A
N29          N30   1.327       .  A
N29         Mn43   2.233       .  S
N30          C32   1.360       .  A
Mn31        Cl44   2.533       .  S
C32         C706   1.516       .  S
C33         C341   1.408       .  S
N34          N35   1.326   1_655  A
N34          N40   1.315       .  A
N34         Mn42   2.213       .  S
N35          C45   1.354   1_455  A
N36          N37   1.307       .  A
N36          N38   1.310       .  A
N36         Mn43   2.156       .  S
N37          C46   1.349       .  A
N38          N39   1.307   1_655  A
N38         Mn42   2.108       .  S
N39          C46   1.339   1_455  A
N40          N41   1.332       .  A
N40         Mn43   2.263       .  S
N41          C45   1.363       .  A
Mn42        Cl44   2.535       .  S
Mn43        Cl44   2.532       .  S
C45         C734   1.508   1_655  S
C46         C216   1.400   1_655  S
N47          N48   1.305       .  A
N47          N53   1.315       .  A
N47         Mn76   2.119       .  S
N48          C55   1.338       .  A
N49          N51   1.310       .  A
N49          N50   1.321   1_556  A
N49         Mn65   2.194       .  S
N50          C56   1.353   1_554  A
N51          N52   1.326   1_655  A
N51         Mn76   2.218       .  S
N52          C56   1.359   1_455  A
N53          N54   1.302       .  A
N53         Mn65   2.119       .  S
N54          C55   1.337       .  A
C55         C194   1.387   1_656  S
C56         C664   1.498   1_656  S
N57          N63   1.311       .  A
N57          N58   1.308       .  A
N57         Mn87   2.170       .  S
N58          C66   1.352       .  A
N59          N60   1.323   1_556  A
N59          N61   1.312       .  A
N59         Mn65   2.197       .  S
N60          C67   1.354   1_554  A
N61          N62   1.328       .  A
N61         Mn87   2.240       .  S
N62          C67   1.361       .  A
N63          N64   1.306       .  A
N63         Mn65   2.104       .  S
N64          C66   1.337       .  A
Mn65        Cl89   2.521       .  S
C66         C238   1.402   1_556  S
C67         C678   1.507   1_556  S
N68          N69   1.306       .  A
N68          N74   1.313       .  A
N68         Mn76   2.116       .  S
N69          C77   1.338       .  A
N70          N72   1.313       .  A
N70          N71   1.330       .  A
N70         Mn88   2.242       .  S
N71          C78   1.362       .  A
N72          N73   1.324       .  A
N72         Mn76   2.212       .  S
N73          C78   1.356       .  A
N74          N75   1.310       .  A
N74         Mn88   2.171       .  S
N75          C77   1.351       .  A
Mn76        Cl89   2.535       .  S
C77         C183   1.403   1_655  S
C78         C692   1.513   1_655  S
N79          N80   1.311       .  A
N79          N85   1.316       .  A
N79         Mn87   2.152       .  S
N80          C90   1.344       .  A
N81          N82   1.328       .  A
N81          N83   1.315       .  A
N81         Mn88   2.236       .  S
N82          C91   1.358       .  A
N83          N84   1.329       .  A
N83         Mn87   2.232       .  S
N84          C91   1.358       .  A
N85          N86   1.310       .  A
N85         Mn88   2.172       .  S
N86          C90   1.348       .  A
Mn87        Cl89   2.539       .  S
Mn88        Cl89   2.528       .  S
C90         C365   1.413       .  S
C91         C650   1.508       .  S
N92          N93   1.327       .  A
N92          N98   1.313       .  A
N92        Mn121   2.238       .  S
N93         C100   1.359       .  A
N94          N96   1.312       .  A
N94          N95   1.306       .  A
N94        Mn110   2.107       .  S
N95         C101   1.336       .  A
N96          N97   1.308       .  A
N96        Mn121   2.169       .  S
N97         C101   1.353       .  A
N98          N99   1.324       .  A
N98        Mn110   2.197       .  S
N99         C100   1.353       .  A
C100        C622   1.495   1_556  S
C101        C205   1.402   1_556  S
N102        N108   1.310       .  A
N102        N103   1.327   1_565  A
N102       Mn132   2.229       .  S
N103        C111   1.361   1_545  A
N104        N105   1.303       .  A
N104        N106   1.314       .  A
N104       Mn110   2.113       .  S
N105        C112   1.336       .  A
N106        N107   1.304       .  A
N106       Mn132   2.123       .  S
N107        C112   1.338       .  A
N108        N109   1.323   1_556  A
N108       Mn110   2.194       .  S
N109        C111   1.352   1_554  A
Mn110      Cl134   2.523       .  S
C111        C608   1.502   1_566  S
C112        C249   1.387   1_566  S
N113        N114   1.331       .  A
N113        N119   1.315       .  A
N113       Mn121   2.239       .  S
N114        C122   1.362       .  A
N115        N117   1.316       .  A
N115        N116   1.310       .  A
N115       Mn133   2.173       .  S
N116        C123   1.348       .  A
N117        N118   1.310       .  A
N117       Mn121   2.147       .  S
N118        C123   1.342       .  A
N119        N120   1.327       .  A
N119       Mn133   2.233       .  S
N120        C122   1.358       .  A
Mn121      Cl134   2.545       .  S
C122        C594   1.522       .  S
C123        C330   1.411       .  S
N124        N125   1.328   1_565  A
N124        N130   1.314       .  A
N124       Mn132   2.225       .  S
N125        C135   1.359   1_545  A
N126        N127   1.309       .  A
N126        N128   1.313       .  A
N126       Mn133   2.170       .  S
N127        C136   1.350       .  A
N128        N129   1.307       .  A
N128       Mn132   2.112       .  S
N129        C136   1.339       .  A
N130        N131   1.329       .  A
N130       Mn133   2.243       .  S
N131        C135   1.361       .  A
Mn132      Cl134   2.543       .  S
Mn133      Cl134   2.517       .  S
C135        C636   1.523   1_565  S
C136        C148   1.401   1_565  S
C137        C541   1.612       .  S
C137        C552   1.620       .  S
C137        C566   1.588       .  S
C137        C583   1.621       .  S
C138        C482   1.613       .  S
C138        C496   1.594       .  S
C138        C510   1.616       .  S
C138        C527   1.625       .  S
C139        C429   1.616       .  S
C139        C440   1.627       .  S
C139        C454   1.627       .  S
C139        C471   1.588       .  S
N140        N141   1.308       .  A
N140        N146   1.310       .  A
N140       Mn169   2.158       .  S
N141        C148   1.349       .  A
N142        N144   1.315       .  A
N142        N143   1.326   1_545  A
N142       Mn158   2.211       .  S
N143        C149   1.355   1_565  A
N144        N145   1.330       .  A
N144       Mn169   2.256       .  S
N145        C149   1.363       .  A
N146        N147   1.308   1_545  A
N146       Mn158   2.109       .  S
N147        C148   1.339   1_565  A
C149        C513   1.510   1_545  S
N150        N156   1.313       .  A
N150        N151   1.304   1_455  A
N150       Mn180   2.118       .  S
N151        C159   1.338   1_655  A
N152        N153   1.323   1_545  A
N152        N154   1.313       .  A
N152       Mn158   2.205       .  S
N153        C160   1.353   1_455  A
N154        N155   1.326   1_455  A
N154       Mn180   2.220       .  S
N155        C160   1.357   1_545  A
N156        N157   1.304   1_545  A
N156       Mn158   2.115       .  S
N157        C159   1.338   1_565  A
Mn158      Cl182   2.534       .  S
C160        C779   1.488       .  S
N161        N162   1.308       .  A
N161        N167   1.317       .  A
N161       Mn169   2.153       .  S
N162        C170   1.343       .  A
N163        N165   1.317       .  A
N163        N164   1.328       .  A
N163       Mn181   2.234       .  S
N164        C171   1.358       .  A
N165        N166   1.328       .  A
N165       Mn169   2.236       .  S
N166        C171   1.358       .  A
N167        N168   1.308       .  A
N167       Mn181   2.147       .  S
N168        C170   1.342       .  A
Mn169      Cl182   2.531       .  S
C170        C285   1.408       .  S
C171        C538   1.512       .  S
N172        N173   1.309   1_455  A
N172        N178   1.311       .  A
N172       Mn180   2.114       .  S
N173        C183   1.339   1_655  A
N174        N175   1.330       .  A
N174        N176   1.315       .  A
N174       Mn181   2.255       .  S
N175        C184   1.364       .  A
N176        N177   1.326   1_455  A
N176       Mn180   2.219       .  S
N177        C184   1.357   1_655  A
N178        N179   1.307       .  A
N178       Mn181   2.160       .  S
N179        C183   1.348       .  A
Mn180      Cl182   2.535       .  S
Mn181      Cl182   2.533       .  S
C184        C457   1.519   1_455  S
N185        N186   1.326   1_455  A
N185        N191   1.310       .  A
N185       Mn214   2.223       .  S
N186        C193   1.360   1_654  A
N187        N189   1.315       .  A
N187        N188   1.305   1_554  A
N187       Mn203   2.119       .  S
N188        C194   1.338   1_556  A
N189        N190   1.303   1_455  A
N189       Mn214   2.119       .  S
N190        C194   1.337   1_655  A
N191        N192   1.321   1_554  A
N191       Mn203   2.184       .  S
N192        C193   1.351       .  A
C193        C807   1.495   1_455  S
N195        N201   1.312       .  A
N195        N196   1.329       .  A
N195       Mn225   2.243       .  S
N196        C204   1.362       .  A
N197        N198   1.305   1_554  A
N197        N199   1.311       .  A
N197       Mn203   2.104       .  S
N198        C205   1.336   1_556  A
N199        N200   1.309       .  A
N199       Mn225   2.167       .  S
N200        C205   1.353       .  A
N201        N202   1.323   1_554  A
N201       Mn203   2.196       .  S
N202        C204   1.355   1_556  A
Mn203      Cl227   2.522       .  S
C204        C555   1.511   1_554  S
N206        N207   1.327   1_455  A
N206        N212   1.314       .  A
N206       Mn214   2.218       .  S
N207        C215   1.357   1_655  A
N208        N210   1.312       .  A
N208        N209   1.308       .  A
N208       Mn226   2.164       .  S
N209        C216   1.349       .  A
N210        N211   1.307   1_455  A
N210       Mn214   2.113       .  S
N211        C216   1.339   1_655  A
N212        N213   1.328       .  A
N212       Mn226   2.241       .  S
N213        C215   1.361       .  A
Mn214      Cl227   2.532       .  S
C215        C443   1.515   1_455  S
N217        N218   1.329       .  A
N217        N223   1.314       .  A
N217       Mn225   2.238       .  S
N218        C228   1.362       .  A
N219        N220   1.310       .  A
N219        N221   1.316       .  A
N219       Mn226   2.173       .  S
N220        C229   1.349       .  A
N221        N222   1.310       .  A
N221       Mn225   2.148       .  S
N222        C229   1.342       .  A
N223        N224   1.327       .  A
N223       Mn226   2.228       .  S
N224        C228   1.357       .  A
Mn225      Cl227   2.541       .  S
Mn226      Cl227   2.524       .  S
C228        C485   1.519       .  S
C229        C296   1.411       .  S
N230        N231   1.309       .  A
N230        N236   1.311       .  A
N230       Mn259   2.169       .  S
N231        C238   1.353       .  A
N232        N234   1.313       .  A
N232        N233   1.323   1_554  A
N232       Mn248   2.195       .  S
N233        C239   1.352   1_556  A
N234        N235   1.330       .  A
N234       Mn259   2.246       .  S
N235        C239   1.361       .  A
N236        N237   1.306   1_554  A
N236       Mn248   2.103       .  S
N237        C238   1.336   1_556  A
C239        C569   1.499   1_554  S
N240        N246   1.316       .  A
N240        N241   1.303   1_545  A
N240       Mn270   2.122       .  S
N241        C249   1.338   1_565  A
N242        N243   1.321   1_554  A
N242        N244   1.310       .  A
N242       Mn248   2.186       .  S
N243        C250   1.352   1_545  A
N244        N245   1.325   1_545  A
N244       Mn270   2.210       .  S
N245        C250   1.358   1_554  A
N246        N247   1.304   1_554  A
N246       Mn248   2.119       .  S
N247        C249   1.337   1_556  A
Mn248      Cl272   2.518       .  S
C250        C765   1.492       .  S
N251        N252   1.310       .  A
N251        N257   1.316       .  A
N251       Mn259   2.148       .  S
N252        C260   1.343       .  A
N253        N255   1.314       .  A
N253        N254   1.327       .  A
N253       Mn271   2.230       .  S
N254        C261   1.356       .  A
N255        N256   1.330       .  A
N255       Mn259   2.238       .  S
N256        C261   1.360       .  A
N257        N258   1.310       .  A
N257       Mn271   2.172       .  S
N258        C260   1.348       .  A
Mn259      Cl272   2.542       .  S
C260        C307   1.411       .  S
C261        C426   1.508       .  S
N262        N263   1.306   1_545  A
N262        N268   1.313       .  A
N262       Mn270   2.112       .  S
N263        C273   1.339   1_565  A
N264        N265   1.329       .  A
N264        N266   1.314       .  A
N264       Mn271   2.240       .  S
N265        C274   1.360       .  A
N266        N267   1.326   1_545  A
N266       Mn270   2.210       .  S
N267        C274   1.355   1_565  A
N268        N269   1.310       .  A
N268       Mn271   2.171       .  S
N269        C273   1.351       .  A
Mn270      Cl272   2.536       .  S
Mn271      Cl272   2.522       .  S
C274        C499   1.509   1_545  S
C275        C412   1.614       .  S
C275        C625   1.581       .  S
C275        C681   1.610       .  S
C275        C709   1.631       .  S
C276        C398   1.606       .  S
C276        C597   1.607       .  S
C276        C695   1.608       .  S
C276        C737   1.606       .  S
N277        N278   1.308       .  A
N277        N283   1.315       .  A
N277       Mn306   2.142       .  S
N278        C285   1.342       .  A
N279        N281   1.314       .  A
N279        N280   1.323       .  A
N279       Mn295   2.217       .  S
N280        C286   1.356       .  A
N281        N282   1.326       .  A
N281       Mn306   2.223       .  S
N282        C286   1.358       .  A
N283        N284   1.309       .  A
N283       Mn295   2.145       .  S
N284        C285   1.343       .  A
C286        C370   1.502       .  S
N287        N293   1.312       .  A
N287        N288   1.309       .  A
N287       Mn317   2.158       .  S
N288        C296   1.346       .  A
N289        N290   1.326       .  A
N289        N291   1.315       .  A
N289       Mn295   2.230       .  S
N290        C297   1.359       .  A
N291        N292   1.330       .  A
N291       Mn317   2.244       .  S
N292        C297   1.361       .  A
N293        N294   1.311       .  A
N293       Mn295   2.138       .  S
N294        C296   1.343       .  A
Mn295      Cl319   2.539       .  S
C297        C401   1.519       .  S
N298        N299   1.311       .  A
N298        N304   1.312       .  A
N298       Mn306   2.137       .  S
N299        C307   1.344       .  A
N300        N302   1.316       .  A
N300        N301   1.327       .  A
N300       Mn318   2.236       .  S
N301        C308   1.359       .  A
N302        N303   1.327       .  A
N302       Mn306   2.232       .  S
N303        C308   1.359       .  A
N304        N305   1.308       .  A
N304       Mn318   2.157       .  S
N305        C307   1.346       .  A
Mn306      Cl319   2.545       .  S
C308        C384   1.513       .  S
N309        N310   1.310       .  A
N309        N315   1.316       .  A
N309       Mn317   2.155       .  S
N310        C320   1.343       .  A
N311        N312   1.325       .  A
N311        N313   1.314       .  A
N311       Mn318   2.213       .  S
N312        C321   1.356       .  A
N313        N314   1.325       .  A
N313       Mn317   2.224       .  S
N314        C321   1.358       .  A
N315        N316   1.312       .  A
N315       Mn318   2.162       .  S
N316        C320   1.345       .  A
Mn317      Cl319   2.536       .  S
Mn318      Cl319   2.532       .  S
C320        C352   1.418       .  S
C321        C415   1.501       .  S
N322        N323   1.309       .  A
N322        N328   1.313       .  A
N322       Mn351   2.162       .  S
N323        C330   1.347       .  A
N324        N326   1.315       .  A
N324        N325   1.324       .  A
N324       Mn340   2.215       .  S
N325        C331   1.356       .  A
N326        N327   1.330       .  A
N326       Mn351   2.247       .  S
N327        C331   1.363       .  A
N328        N329   1.310       .  A
N328       Mn340   2.137       .  S
N329        C330   1.343       .  A
C331        C524   1.517       .  S
N332        N338   1.314       .  A
N332        N333   1.308       .  A
N332       Mn362   2.148       .  S
N333        C341   1.343       .  A
N334        N335   1.323       .  A
N334        N336   1.313       .  A
N334       Mn340   2.209       .  S
N335        C342   1.355       .  A
N336        N337   1.325       .  A
N336       Mn362   2.215       .  S
N337        C342   1.357       .  A
N338        N339   1.309       .  A
N338       Mn340   2.139       .  S
N339        C341   1.342       .  A
Mn340      Cl364   2.540       .  S
C342        C793   1.498       .  S
N343        N344   1.310       .  A
N343        N349   1.317       .  A
N343       Mn351   2.162       .  S
N344        C352   1.344       .  A
N345        N347   1.315       .  A
N345        N346   1.326       .  A
N345       Mn363   2.219       .  S
N346        C353   1.355       .  A
N347        N348   1.327       .  A
N347       Mn351   2.229       .  S
N348        C353   1.357       .  A
N349        N350   1.311       .  A
N349       Mn363   2.159       .  S
N350        C352   1.344       .  A
Mn351      Cl364   2.536       .  S
C353        C580   1.498       .  S
N354        N355   1.312       .  A
N354        N360   1.313       .  A
N354       Mn362   2.146       .  S
N355        C365   1.345       .  A
N356        N357   1.327       .  A
N356        N358   1.316       .  A
N356       Mn363   2.236       .  S
N357        C366   1.358       .  A
N358        N359   1.327       .  A
N358       Mn362   2.223       .  S
N359        C366   1.356       .  A
N360        N361   1.309       .  A
N360       Mn363   2.158       .  S
N361        C365   1.346       .  A
Mn362      Cl364   2.542       .  S
Mn363      Cl364   2.534       .  S
C366        C468   1.501       .  S
C367        C387   1.605       .  S
C367        C639   1.610       .  S
C367        C653   1.602       .  S
C367        C751   1.606       .  S
C368        C373   1.601       .  S
C368        C611   1.591       .  S
C368        C667   1.582       .  S
C368        C720   1.588       .  S
C369        C370   1.398       .  A
C369        C374   1.407       .  A
C369        H376   1.084       .  S
C370        C371   1.416       .  A
C371        C372   1.413       .  A
C371        N378   1.440       .  S
C372        C373   1.424       .  A
C372        H377   1.078       .  S
C373        C374   1.445       .  A
C374        N375   1.438       .  S
N375        H379   1.046       .  S
N375        H380   1.030       .  S
N378        H381   1.041       .  S
N378        H382   1.046       .  S
C383        C384   1.403       .  A
C383        C388   1.411       .  A
C383        H390   1.084       .  S
C384        C385   1.419       .  A
C385        C386   1.416       .  A
C385        N392   1.440       .  S
C386        C387   1.425       .  A
C386        H391   1.076       .  S
C387        C388   1.442       .  A
C388        N389   1.433       .  S
N389        H393   1.042       .  S
N389        H394   1.041       .  S
N392        H395   1.041       .  S
N392        H396   1.046       .  S
C397        C398   1.422       .  A
C397        C402   1.416       .  A
C397        H404   1.074       .  S
C398        C399   1.438       .  A
C399        C400   1.424       .  A
C399        N406   1.440       .  S
C400        C401   1.407       .  A
C400        H405   1.083       .  S
C401        C402   1.413       .  A
C402        N403   1.438       .  S
N403        H407   1.046       .  S
N403        H408   1.046       .  S
N406        H409   1.042       .  S
N406        H410   1.045       .  S
C411        C412   1.434       .  A
C411        C416   1.413       .  A
C411        H418   1.078       .  S
C412        C413   1.431       .  A
C413        C414   1.411       .  A
C413        N420   1.417       .  S
C414        C415   1.395       .  A
C414        H419   1.085       .  S
C415        C416   1.414       .  A
C416        N417   1.440       .  S
N417        H421   1.046       .  S
N417        H422   1.041       .  S
N420        H423   1.046       .  S
N420        H424   1.046       .  S
C425        C426   1.395       .  A
C425        C430   1.411       .  A
C425        H432   1.085       .  S
C426        C427   1.408       .  A
C427        C428   1.424       .  A
C427        N434   1.437       .  S
C428        C429   1.431       .  A
C428        H433   1.083       .  S
C429        C430   1.450       .  A
C430        N431   1.427       .  S
N431        H435   1.040       .  S
N431        H436   1.040       .  S
N434        H437   1.046       .  S
N434        H438   1.046       .  S
C439        C440   1.420       .  A
C439        C444   1.416       .  A
C439        H446   1.065       .  S
C440        C441   1.444       .  A
C441        C442   1.423       .  A
C441        N448   1.431       .  S
C442        C443   1.403       .  A
C442        H447   1.084       .  S
C443        C444   1.407       .  A
C444        N445   1.438       .  S
N445        H449   1.046       .  S
N445        H450   1.046       .  S
N448        H451   1.046       .  S
N448        H452   1.046       .  S
C453        C454   1.433       .  A
C453        C458   1.416       .  A
C453        H460   1.075       .  S
C454        C455   1.444       .  A
C455        C456   1.417       .  A
C455        N462   1.424       .  S
C456        C457   1.396       .  A
C456        H461   1.084   1_655  S
C457        C458   1.416       .  A
C458        N459   1.433       .  S
N459        H463   1.045       .  S
N459        H464   1.045       .  S
N462        H465   1.047       .  S
N462        H466   1.046       .  S
C467        C468   1.400       .  A
C467        C472   1.412       .  A
C467        H474   1.084       .  S
C468        C469   1.417       .  A
C469        C470   1.415       .  A
C469        N476   1.439       .  S
C470        C471   1.423       .  A
C470        H475   1.082       .  S
C471        C472   1.435       .  A
C472        N473   1.432       .  S
N473        H477   1.046       .  S
N473        H478   1.045       .  S
N476        H479   1.043       .  S
N476        H480   1.046       .  S
C481        C482   1.424       .  A
C481        C486   1.422       .  A
C481        H488   1.083       .  S
C482        C483   1.442       .  A
C483        C484   1.421       .  A
C483        N490   1.436       .  S
C484        C485   1.401       .  A
C484        H489   1.083       .  S
C485        C486   1.416       .  A
C486        N487   1.437       .  S
N487        H491   1.046       .  S
N487        H492   1.046       .  S
N490        H493   1.046       .  S
N490        H494   1.046       .  S
C495        C496   1.422       .  A
C495        C500   1.418       .  A
C495        H502   1.083       .  S
C496        C497   1.436       .  A
C497        C498   1.416       .  A
C497        N504   1.430       .  S
C498        C499   1.400       .  A
C498        H503   1.084   1_565  S
C499        C500   1.414       .  A
C500        N501   1.438       .  S
N501        H505   1.046       .  S
N501        H506   1.046       .  S
N504        H507   1.046   1_565  S
N504        H508   1.046   1_565  S
C509        C510   1.430       .  A
C509        C514   1.418       .  A
C509        H516   1.080       .  S
C510        C511   1.441       .  A
C511        C512   1.415       .  A
C511        N518   1.423       .  S
C512        C513   1.395       .  A
C512        H517   1.084       .  S
C513        C514   1.417       .  A
C514        N515   1.439       .  S
N515        H519   1.046       .  S
N515        H520   1.042       .  S
N518        H521   1.046       .  S
N518        H522   1.046       .  S
C523        C524   1.401       .  A
C523        C528   1.423       .  A
C523        H530   1.083       .  S
C524        C525   1.413       .  A
C525        C526   1.416       .  A
C525        N532   1.438       .  S
C526        C527   1.425       .  A
C526        H531   1.081       .  S
C527        C528   1.443       .  A
C528        N529   1.432       .  S
N529        H533   1.046       .  S
N529        H534   1.046       .  S
N532        H535   1.046       .  S
N532        H536   1.046       .  S
C537        C538   1.400       .  A
C537        C542   1.418       .  A
C537        H544   1.084       .  S
C538        C539   1.412       .  A
C539        C540   1.420       .  A
C539        N546   1.437       .  S
C540        C541   1.427       .  A
C540        H545   1.084       .  S
C541        C542   1.440       .  A
C542        N543   1.429       .  S
N543        H547   1.046       .  S
N543        H548   1.046       .  S
N546        H549   1.046       .  S
N546        H550   1.046       .  S
C551        C552   1.426       .  A
C551        C556   1.417       .  A
C551        H558   1.076       .  S
C552        C553   1.442       .  A
C553        C554   1.415       .  A
C553        N560   1.428       .  S
C554        C555   1.400       .  A
C554        H559   1.084       .  S
C555        C556   1.407       .  A
C556        N557   1.437   1_556  S
N557        H561   1.046       .  S
N557        H562   1.046       .  S
N560        H563   1.046       .  S
N560        H564   1.046       .  S
C565        C566   1.421       .  A
C565        C570   1.413       .  A
C565        H572   1.079       .  S
C566        C567   1.441       .  A
C567        C568   1.413       .  A
C567        N574   1.437       .  S
C568        C569   1.401       .  A
C568        H573   1.084   1_556  S
C569        C570   1.409       .  A
C570        N571   1.439       .  S
N571        H575   1.046       .  S
N571        H576   1.045       .  S
N574        H577   1.042       .  S
N574        H578   1.045   1_556  S
C579        C580   1.394       .  A
C579        C584   1.418       .  A
C579        H586   1.084       .  S
C580        C581   1.412       .  A
C581        C582   1.413       .  A
C581        N588   1.439       .  S
C582        C583   1.430       .  A
C582        H587   1.079       .  S
C583        C584   1.441       .  A
C584        N585   1.429       .  S
N585        H589   1.046       .  S
N585        H590   1.045       .  S
N588        H591   1.043       .  S
N588        H592   1.046       .  S
C593        C594   1.405       .  A
C593        C598   1.418       .  A
C593        H600   1.084       .  S
C594        C595   1.422       .  A
C595        C596   1.418       .  A
C595        N602   1.440       .  S
C596        C597   1.423       .  A
C596        H601   1.079       .  S
C597        C598   1.443       .  A
C598        N599   1.438       .  S
N599        H603   1.045       .  S
N599        H604   1.037       .  S
N602        H605   1.041       .  S
N602        H606   1.046       .  S
C607        C608   1.398   1_556  A
C607        C612   1.411   1_556  A
C607        H614   1.084       .  S
C608        C609   1.417       .  A
C609        C610   1.408       .  A
C609        N616   1.432   1_545  S
C610        C611   1.418       .  A
C610        H615   1.084       .  S
C611        C612   1.438       .  A
C612        N613   1.431   1_554  S
N613        H617   1.046       .  S
N613        H618   1.046       .  S
N616        H619   1.045   1_565  S
N616        H620   1.045       .  S
C621        C622   1.398       .  A
C621        C626   1.411       .  A
C621        H628   1.084       .  S
C622        C623   1.416       .  A
C623        C624   1.412       .  A
C623        N630   1.438   1_554  S
C624        C625   1.422       .  A
C624        H629   1.083       .  S
C625        C626   1.434       .  A
C626        N627   1.430       .  S
N627        H631   1.046       .  S
N627        H632   1.046       .  S
N630        H633   1.043       .  S
N630        H634   1.046       .  S
C635        C636   1.407       .  A
C635        C640   1.420       .  A
C635        H642   1.083       .  S
C636        C637   1.418   1_545  A
C637        C638   1.414   1_565  A
C637        N644   1.432       .  S
C638        C639   1.424       .  A
C638        H643   1.073       .  S
C639        C640   1.434       .  A
C640        N641   1.432       .  S
N641        H645   1.046       .  S
N641        H646   1.045       .  S
N644        H647   1.045       .  S
N644        H648   1.045       .  S
C649        C650   1.403       .  A
C649        C654   1.421       .  A
C649        H656   1.084       .  S
C650        C651   1.414       .  A
C651        C652   1.412       .  A
C651        N658   1.440       .  S
C652        C653   1.425       .  A
C652        H657   1.077       .  S
C653        C654   1.444       .  A
C654        N655   1.441       .  S
N655        H659   1.045       .  S
N655        H660   1.038       .  S
N658        H661   1.043       .  S
N658        H662   1.046       .  S
C663        C664   1.401       .  A
C663        C668   1.409       .  A
C663        H670   1.084   1_455  S
C664        C665   1.413       .  A
C665        C666   1.406       .  A
C665        N672   1.432   1_554  S
C666        C667   1.421       .  A
C666        H671   1.083       .  S
C667        C668   1.435       .  A
C668        N669   1.432       .  S
N669        H673   1.046   1_455  S
N669        H674   1.046   1_455  S
N672        H675   1.045       .  S
N672        H676   1.045       .  S
C677        C678   1.399   1_556  A
C677        C682   1.416   1_556  A
C677        H684   1.084       .  S
C678        C679   1.415       .  A
C679        C680   1.407       .  A
C679        N686   1.432       .  S
C680        C681   1.424       .  A
C680        H685   1.084       .  S
C681        C682   1.442       .  A
C682        N683   1.430   1_554  S
N683        H687   1.046       .  S
N683        H688   1.046       .  S
N686        H689   1.045       .  S
N686        H690   1.045       .  S
C691        C692   1.403       .  A
C691        C696   1.418       .  A
C691        H698   1.084   1_455  S
C692        C693   1.410       .  A
C693        C694   1.415       .  A
C693        N700   1.439       .  S
C694        C695   1.426       .  A
C694        H699   1.075       .  S
C695        C696   1.445       .  A
C696        N697   1.438       .  S
N697        H701   1.045   1_455  S
N697        H702   1.037       .  S
N700        H703   1.046       .  S
N700        H704   1.045       .  S
C705        C706   1.402       .  A
C705        C710   1.418       .  A
C705        H712   1.084       .  S
C706        C707   1.416       .  A
C707        C708   1.416       .  A
C707        N714   1.441       .  S
C708        C709   1.430       .  A
C708        H713   1.069       .  S
C709        C710   1.446       .  A
C710        N711   1.436       .  S
N711        H715   1.046       .  S
N711        H716   1.046       .  S
N714        H717   1.041       .  S
N714        H718   1.046       .  S
C719        C720   1.422       .  A
C719        C724   1.403       .  A
C719        H726   1.076       .  S
C720        C721   1.434       .  A
C721        C722   1.418       .  A
C721        N728   1.439       .  S
C722        C723   1.401       .  A
C722        H727   1.084   1_545  S
C723        C724   1.410       .  A
C724        N725   1.440       .  S
N725        H729   1.046       .  S
N725        H730   1.043       .  S
N728        H731   1.041       .  S
N728        H732   1.045   1_545  S
C733        C734   1.404       .  A
C733        C738   1.426       .  A
C733        H740   1.083   1_455  S
C734        C735   1.406       .  A
C735        C736   1.415       .  A
C735        N742   1.439       .  S
C736        C737   1.426       .  A
C736        H741   1.075       .  S
C737        C738   1.438       .  A
C738        N739   1.439       .  S
N739        H743   1.045   1_455  S
N739        H744   1.043       .  S
N742        H745   1.045       .  S
N742        H746   1.046       .  S
C747        C748   1.402       .  A
C747        C752   1.417       .  A
C747        H754   1.084       .  S
C748        C749   1.413       .  A
C749        C750   1.423       .  A
C749        N756   1.437   1_545  S
C750        C751   1.424       .  A
C750        H755   1.083       .  S
C751        C752   1.439       .  A
C752        N753   1.430       .  S
N753        H757   1.046       .  S
N753        H758   1.046       .  S
N756        H759   1.046   1_565  S
N756        H760   1.046       .  S
C761        C762   1.418       .  A
C761        C766   1.410       .  A
C761        H768   1.076       .  S
C762        C763   1.438       .  A
C763        C764   1.403       .  A
C763        N770   1.433       .  S
C764        C765   1.398       .  A
C764        H769   1.084       .  S
C765        C766   1.410       .  A
C766        N767   1.439   1_565  S
N767        H771   1.046       .  S
N767        H772   1.046       .  S
N770        H773   1.040       .  S
N770        H774   1.043       .  S
C775        C776   1.426       .  A
C775        C780   1.405       .  A
C775        H782   1.079       .  S
C776        C777   1.443       .  A
C777        C778   1.412       .  A
C777        N784   1.437       .  S
C778        C779   1.397       .  A
C778        H783   1.084   1_565  S
C779        C780   1.409       .  A
C780        N781   1.440       .  S
N781        H785   1.046       .  S
N781        H786   1.043       .  S
N784        H787   1.032       .  S
N784        H788   1.046       .  S
C789        C790   1.420       .  A
C789        C794   1.403       .  A
C789        H796   1.084       .  S
C790        C791   1.434       .  A
C791        C792   1.412       .  A
C791        N798   1.430       .  S
C792        C793   1.401       .  A
C792        H797   1.084       .  S
C793        C794   1.414       .  A
C794        N795   1.432       .  S
N795        H799   1.045       .  S
N795        H800   1.045       .  S
N798        H801   1.046       .  S
N798        H802   1.046       .  S
C803        C804   1.418       .  A
C803        C808   1.412       .  A
C803        H810   1.083       .  S
C804        C805   1.438       .  A
C805        C806   1.407       .  A
C805        N812   1.431       .  S
C806        C807   1.396       .  A
C806        H811   1.084   1_556  S
C807        C808   1.413       .  A
C808        N809   1.438   1_655  S
N809        H813   1.046       .  S
N809        H814   1.046   1_455  S
N812        H815   1.046   1_556  S
N812        H816   1.046   1_556  S
