geometry optimzed in LAMMPS
_audit_creation_date              2020-11-30 
_audit_creation_method            'lammps2cif' 
_symmetry_space_group_name_H-M    'P1' 
_symmetry_Int_Tables_number       1 
_symmetry_cell_setting            triclinic 
loop_ 
_symmetry_equiv_pos_as_xyz 
  x,y,z 
_cell_length_a                    39.03075167 
_cell_length_b                    38.96401448937114 
_cell_length_c                    28.427986937310234 
_cell_angle_alpha                 89.1275642995621 
_cell_angle_beta                  88.03001250201866 
_cell_angle_gamma                 96.57544925411234 
loop_ 
_atom_site_label 
_atom_site_type_symbol 
_atom_site_fract_x 
_atom_site_fract_y 
_atom_site_fract_z 
_atom_site_charge 
C1          C  0.87060428  0.38100342  0.29309688     0.30900
C2          C  0.87325033  0.38254324  0.06419607     0.30900
C3          C  0.90632600  0.39044117  0.31644282    -0.05300
C4          C  0.84786721  0.40509115  0.32104170    -0.06100
C5          C  0.85897213  0.34647457  0.32093046    -0.06000
C6          C  0.90766189  0.39513051  0.03479127    -0.05300
C7          C  0.84948245  0.40584498  0.03756773    -0.06100
C8          C  0.86275764  0.34745631  0.03807344    -0.06000
C9          C  0.92987934  0.42485485  0.03992951    -0.31400
N10         N  0.95101616  0.43268068  0.00179220     0.15200
C11         C  0.93577082  0.41109870  0.29875771    -0.31400
H12         H  0.94492028  0.41380464  0.26247579     0.17100
C13         C  0.82026847  0.42073672  0.05120477    -0.30300
N14         N  0.80017506  0.42639877  0.34794465     0.13900
C15         C  0.81866445  0.41952657  0.30867462    -0.30300
C16         C  0.86037479  0.31268967  0.05108780    -0.30600
N17         N  0.85412184  0.29113244  0.34558684     0.14400
H18         H  0.86061815  0.30246736  0.08645273     0.17000
C19         C  0.85364414  0.31236414  0.30738184    -0.30600
H20         H  0.85325138  0.30356076  0.27154870     0.17000
H21         H  0.80931111  0.42120792  0.27352877     0.17000
H22         H  0.92279887  0.44531836  0.06139854     0.17100
H23         H  0.81050347  0.42267044  0.08693303     0.17000
C24         C  0.87352632  0.38160882  0.12738528     0.30900
C25         C  0.87021380  0.38210689  0.23197202     0.30900
C26         C  0.88590968  0.41604119  0.15423852    -0.05300
C27         C  0.83784954  0.37139360  0.15471135    -0.06100
C28         C  0.89544155  0.35719582  0.15542314    -0.06000
C29         C  0.88148843  0.41733384  0.20507402    -0.05300
C30         C  0.83629734  0.37110582  0.20537626    -0.06100
C31         C  0.89443252  0.35851756  0.20612576    -0.06000
C32         C  0.90173873  0.44691894  0.21991969    -0.31400
N33         N  0.92302036  0.45926511  0.18355660     0.15200
C34         C  0.91606152  0.43806103  0.14710100    -0.31400
H35         H  0.93696789  0.43111059  0.12536432     0.17100
C36         C  0.80154257  0.36602584  0.21881396    -0.30300
N37         N  0.78210390  0.36421088  0.17991882     0.13900
C38         C  0.80388020  0.36627315  0.14126873    -0.30300
C39         C  0.90879945  0.33016201  0.22219802    -0.30600
N40         N  0.91573610  0.30996654  0.18563980     0.14400
H41         H  0.91041327  0.32258205  0.25857785     0.17000
C42         C  0.90923478  0.32677251  0.14507089    -0.30600
H43         H  0.91234448  0.31622283  0.11058149     0.17000
H44         H  0.79532818  0.36608941  0.10558195     0.17000
H45         H  0.90356215  0.45620568  0.25546150     0.17100
H46         H  0.79092401  0.36637451  0.25438880     0.17000
C47         C  0.51503766  0.87443950  0.07081108     0.30900
C48         C  0.51588303  0.87537545  0.29935358     0.30900
C49         C  0.47997045  0.87690266  0.04603562    -0.05300
C50         C  0.53706149  0.90398417  0.04222029    -0.06100
C51         C  0.52630990  0.84217590  0.04328289    -0.06000
C52         C  0.47963078  0.87684980  0.99501972    -0.05300
C53         C  0.53662129  0.90429069  0.99140149    -0.06100
C54         C  0.52638008  0.84331241  0.99230581    -0.06000
C55         C  0.45213802  0.89203255  0.31551843    -0.31400
N56         N  0.43366712  0.90070297  0.02222571     0.15200
C57         C  0.45099328  0.89165618  0.06048073    -0.31400
H58         H  0.44537696  0.89880339  0.09621379     0.17100
C59         C  0.56992312  0.92233049  0.31180737    -0.30300
N60         N  0.58570465  0.93277940  0.01344845     0.13900
C61         C  0.56734918  0.92298288  0.05343824    -0.30300
C62         C  0.52685407  0.80943572  0.30957327    -0.30600
N63         N  0.52275059  0.78775976  0.01515464     0.14400
H64         H  0.52516304  0.80205372  0.27357846     0.17000
C65         C  0.52366150  0.80689855  0.05488098    -0.30600
H66         H  0.51979539  0.79570065  0.08970440     0.17000
H67         H  0.57733229  0.92609923  0.08816637     0.17000
H68         H  0.44620932  0.89869069  0.27996617     0.17100
H69         H  0.58046527  0.92519516  0.27629186     0.17000
C70         C  0.51679645  0.87627751  0.13278368     0.30900
C71         C  0.51605858  0.87646408  0.23738057     0.30900
C72         C  0.51267737  0.91086699  0.15883130    -0.05300
C73         C  0.48819979  0.85279005  0.16125739    -0.06100
C74         C  0.54964940  0.86665094  0.15903398    -0.06000
C75         C  0.51261669  0.91100477  0.20985127    -0.05300
C76         C  0.48788626  0.85284703  0.21217289    -0.06100
C77         C  0.54834571  0.86586006  0.21009342    -0.06000
C78         C  0.49685302  0.93934444  0.22317249    -0.31400
N79         N  0.48679006  0.95588575  0.18436637     0.15200
C80         C  0.49691816  0.93916517  0.14546584    -0.31400
H81         H  0.48984660  0.94457138  0.10997224     0.17100
C82         C  0.47137158  0.82140768  0.22665339    -0.30300
N83         N  0.46272114  0.80241696  0.18864246     0.13900
C84         C  0.47127703  0.82154870  0.14918262    -0.30300
C85         C  0.58171139  0.86924615  0.22421084    -0.30600
N86         N  0.60365749  0.87456271  0.18654348     0.14400
H87         H  0.58930354  0.87102900  0.26001997     0.17000
C88         C  0.58483975  0.87297286  0.14717004    -0.30600
H89         H  0.59600615  0.87886455  0.11271295     0.17000
H90         H  0.46936356  0.81153590  0.11410130     0.17000
H91         H  0.48968424  0.94486170  0.25903053     0.17100
H92         H  0.46985977  0.81130891  0.26220201     0.17000
O93         O  0.02584356  0.00267179  0.37405118    -0.80000
O94         O  0.86297053  0.96757206  0.01433286    -0.64700
O95         O  0.95632958  0.98715523  0.04783580    -1.11300
C96         C  0.95071377  0.86366007  0.05495317     1.06900
O97         O  0.84846795  0.92343859  0.06546458    -0.77900
O98         O  0.90291063  0.93210419  0.11558795    -0.65500
Ni99       Ni  0.98689547  0.01771962  0.34552170     1.34900
C100        C  0.93430796  0.94321581  0.11909867     0.85600
O101        O  0.90514758  0.02568730  0.02691285    -0.78400
O102        O  0.94981674  0.03790867  0.31674002    -0.88700
C103        C  0.84051716  0.94730232  0.03773692     0.85200
O104        O  0.98407204  0.97788090  0.31109530    -0.66900
O105        O  0.92497201  0.86911367  0.08220232    -0.86200
C106        C  0.95662616  0.96044649  0.29915628     0.86000
C107        C  0.92479014  0.04776990  0.00233651     1.07600
H108        H  0.90558969  0.91953275  0.33932222     0.39400
O109        O  0.91523773  0.92928850  0.03294195    -1.08900
O110        O  0.95794612  0.92770836  0.10302286    -0.65500
Ni111      Ni  0.96505561  0.93747214  0.04048947     1.26300
O112        O  0.92714602  0.97190354  0.30455128    -0.65700
O113        O  0.96987299  0.88874654  0.03427757    -0.78000
C114        C  0.03475961  0.97565468  0.05029902     0.85400
O115        O  0.01489961  0.94697337  0.04873037    -0.65200
Ni116      Ni  0.88796885  0.89857635  0.07374267     1.27400
Ni117      Ni  0.90971785  0.97727579  0.03102909     1.26100
H118        H  0.95447981  0.00334505  0.07210698     0.40000
O119        O  0.03672009  0.00387662  0.18072579    -0.80000
O120        O  0.87261108  0.97261615  0.23085962    -0.64700
O121        O  0.97316052  0.98834231  0.21753889    -1.11300
C122        C  0.95853627  0.86324918  0.19308058     1.06900
O123        O  0.87374109  0.92575726  0.27537802    -0.77900
O124        O  0.93910205  0.90072650  0.28936870    -0.65500
Ni125      Ni  0.99317806  0.02278058  0.17495503     1.34900
C126        C  0.96190675  0.92616939  0.28423969     0.85600
O127        O  0.91975296  0.03137922  0.23391762    -0.78400
O128        O  0.95259441  0.04649032  0.16968748    -0.88700
C129        C  0.85676251  0.94541050  0.25113859     0.85200
O130        O  0.97525417  0.98666398  0.13837197    -0.66900
O131        O  0.93020779  0.86284614  0.21686131    -0.86200
C132        C  0.94339622  0.97470639  0.13999943     0.86000
C133        C  0.93239832  0.05417804  0.20314420     1.07600
H134        H  0.90927383  0.92819956  0.19033314     0.39400
O135        O  0.92593433  0.93374154  0.21299641    -1.08900
O136        O  0.98641309  0.92407305  0.25584570    -0.65500
Ni137      Ni  0.97555285  0.93956647  0.19630122     1.26300
O138        O  0.92039110  0.98882971  0.16181109    -0.65700
O139        O  0.97644017  0.89139879  0.17828744    -0.78000
C140        C  0.04594302  0.97347519  0.18274443     0.85400
O141        O  0.02445766  0.94628035  0.18257754    -0.65200
Ni142      Ni  0.90349352  0.89519000  0.24663298     1.27400
Ni143      Ni  0.92251774  0.98219491  0.22633778     1.26100
H144        H  0.98782980  0.99667652  0.24167770     0.40000
C145        C  0.03151983  0.53823276  0.95253678     0.30900
C146        C  0.02816390  0.53699809  0.05691496     0.30900
C147        C  0.01894171  0.50298099  0.97882610    -0.05300
C148        C  0.06609395  0.54714267  0.97955326    -0.06100
C149        C  0.00856362  0.56323754  0.97934608    -0.06000
C150        C  0.01477780  0.50356611  0.02948530    -0.05300
C151        C  0.06412836  0.54600354  0.03028052    -0.06100
C152        C  0.00729933  0.56275353  0.02995723    -0.06000
C153        C  0.98495262  0.48143777  0.03693068    -0.31400
N154        N  0.97807022  0.46050457  0.00030321     0.15200
C155        C  0.99909696  0.47322115  0.96383073    -0.31400
H156        H  0.99429586  0.46243412  0.25993106     0.17100
C157        C  0.09764105  0.54600452  0.04472159    -0.30300
N158        N  0.11971394  0.54576988  0.00675505     0.13900
C159        C  0.10120068  0.54822519  0.96729445    -0.30300
C160        C  0.99143314  0.59126842  0.04325736    -0.30600
N161        N  0.98477357  0.61022416  0.00474615     0.14400
H162        H  0.98721274  0.59906694  0.07887963     0.17000
C163        C  0.99363655  0.59259091  0.96605738    -0.30600
H164        H  0.98855492  0.59891679  0.26518148     0.17000
H165        H  0.10813567  0.54240754  0.25657150     0.17000
H166        H  0.96413405  0.48803679  0.05906321     0.17100
H167        H  0.10542925  0.54393059  0.08061877     0.17000
C168        C  0.02855328  0.53556718  0.11949869     0.30900
C169        C  0.02876210  0.53674041  0.22346298     0.30900
C170        C  0.99397143  0.52411773  0.14895768    -0.05300
C171        C  0.05142043  0.51143367  0.14597562    -0.06100
C172        C  0.04036173  0.57050558  0.14456564    -0.06000
C173        C  0.99296161  0.52752063  0.19974657    -0.05300
C174        C  0.05100529  0.51149907  0.19639053    -0.06100
C175        C  0.04104988  0.57093013  0.19512991    -0.06000
C176        C  0.96302739  0.50728474  0.21707028    -0.31400
N177        N  0.95040672  0.48687760  0.18214830     0.15200
C178        C  0.97157191  0.49445749  0.14405195    -0.31400
H179        H  0.97860208  0.47380140  0.12284268     0.17100
C180        C  0.07571684  0.49064230  0.20954435    -0.30300
N181        N  0.09257940  0.47990368  0.17079213     0.13900
C182        C  0.07670367  0.49107985  0.13241961    -0.30300
C183        C  0.04297545  0.60539973  0.20736347    -0.30600
N184        N  0.04178987  0.62547794  0.16819739     0.14400
H185        H  0.04279044  0.61525104  0.24261716     0.17000
C186        C  0.04195117  0.60487745  0.13013186    -0.30600
H187        H  0.04172012  0.61445848  0.09441155     0.17000
H188        H  0.08497921  0.48726027  0.09671898     0.17000
H189        H  0.95351648  0.50494740  0.25322471     0.17100
H190        H  0.08324853  0.48593255  0.24500661     0.17000
C191        C  0.38021889  0.00436947  0.30315001     0.30900
C192        C  0.37896769  0.00434289  0.07452479     0.30900
C193        C  0.38425484  0.96975182  0.33029290    -0.05300
C194        C  0.40827294  0.02852285  0.32878258    -0.06100
C195        C  0.34794157  0.01435497  0.33107444    -0.06000
C196        C  0.38473169  0.97069664  0.04782238    -0.05300
C197        C  0.40673293  0.02996673  0.04661767    -0.06100
C198        C  0.34626019  0.01320416  0.04833967    -0.06000
C199        C  0.39920538  0.94170870  0.06140813    -0.31400
N200        N  0.40929678  0.92504158  0.02252004     0.15200
C201        C  0.39997622  0.94138350  0.31677589    -0.31400
H202        H  0.40702898  0.93584968  0.28089864     0.17100
C203        C  0.42122767  0.06241913  0.05900832    -0.30300
N204        N  0.42876469  0.08247938  0.01998026     0.13900
C205        C  0.42354079  0.06093002  0.31510922    -0.30300
C206        C  0.31213979  0.01381395  0.06221704    -0.30600
N207        N  0.29274622  0.01416590  0.02353336     0.14400
H208        H  0.30164003  0.01204826  0.09785205     0.17000
C209        C  0.31467101  0.01584076  0.31786110    -0.30600
H210        H  0.30574172  0.01567061  0.28228993     0.17000
H211        H  0.42541485  0.07122323  0.27964337     0.17000
H212        H  0.40497621  0.93530107  0.09712358     0.17100
H213        H  0.42285546  0.07214403  0.09428394     0.17000
C214        C  0.37876979  0.00368338  0.13649507     0.30900
C215        C  0.37950068  0.00457736  0.24108514     0.30900
C216        C  0.41311081  0.99951261  0.16167293    -0.05300
C217        C  0.36885023  0.03612630  0.16273884    -0.06100
C218        C  0.35440769  0.97562962  0.16546380    -0.06000
C219        C  0.41338619  0.99976765  0.21233462    -0.05300
C220        C  0.36996093  0.03725211  0.21326925    -0.06100
C221        C  0.35442070  0.97610992  0.21659450    -0.06000
C222        C  0.44356979  0.98746296  0.22460845    -0.31400
N223        N  0.46099395  0.97874927  0.18503354     0.15200
C224        C  0.44312950  0.98690277  0.14687931    -0.31400
H225        H  0.44965931  0.98107836  0.11091021     0.17100
C226        C  0.37058661  0.07193373  0.22365541    -0.30300
N227        N  0.36890083  0.09101114  0.18342999     0.13900
C228        C  0.36662865  0.06913801  0.14698339    -0.30300
C229        C  0.32177174  0.96113400  0.23139864    -0.30600
N230        N  0.30216710  0.95290814  0.19381300     0.14400
H231        H  0.31140714  0.96036566  0.26708648     0.17000
C232        C  0.32220943  0.96037567  0.15429214    -0.30600
H233        H  0.31245901  0.95930426  0.11934244     0.17000
H234        H  0.36725535  0.07707251  0.11086914     0.17000
H235        H  0.45049407  0.98222204  0.26022278     0.17100
H236        H  0.37464963  0.08269973  0.25759065     0.17000
O237        O  0.40274552  0.35181978  0.03861444    -0.80000
O238        O  0.43691351  0.51433184  0.98554399    -0.64700
O239        O  0.41965823  0.41415471  0.99916589    -1.11300
C240        C  0.54316847  0.42471061  0.34549065     1.06900
O241        O  0.47993908  0.51125903  0.27447325    -0.77900
O242        O  0.49851358  0.44421912  0.25276182    -0.65500
Ni243      Ni  0.38410470  0.39568842  0.04176959     1.34900
C244        C  0.47278959  0.42199888  0.26027967     0.85600
O245        O  0.37879209  0.46889710  0.98195700    -0.78400
O246        O  0.36017312  0.43667867  0.04512407    -0.88700
C247        C  0.46373922  0.52989130  0.96429233     0.85200
O248        O  0.41989285  0.41399807  0.07764143    -0.66900
O249        O  0.54252202  0.45122046  0.31926546    -0.86200
C250        C  0.43256637  0.44560355  0.07601795     0.86000
C251        C  0.35534355  0.45874397  0.01300005     1.07600
H252        H  0.48130554  0.47738322  0.02448894     0.39400
O253        O  0.47492786  0.46081886  0.00169385    -1.08900
O254        O  0.47683248  0.39697723  0.28653698    -0.65500
Ni255      Ni  0.46814918  0.41150015  0.01839524     1.26300
O256        O  0.41950322  0.46860205  0.05391424    -0.65700
O257        O  0.51682560  0.41010728  0.03379961    -0.78000
C258        C  0.43294567  0.34208498  0.03516565     0.85400
O259        O  0.46030527  0.36319199  0.03326709    -0.65200
Ni260      Ni  0.50995228  0.47903544  0.29604497     1.27400
Ni261      Ni  0.42690161  0.46476724  0.98958164     1.26100
H262        H  0.41180668  0.39356860  0.31017634     0.40000
O263        O  0.39304062  0.36488522  0.16784523    -0.80000
O264        O  0.43297292  0.52413593  0.20574496    -0.64700
O265        O  0.41248013  0.43197373  0.16572410    -1.11300
C266        C  0.53722836  0.43367069  0.16478841     1.06900
O267        O  0.47575420  0.53725394  0.15168920    -0.77900
O268        O  0.47719391  0.48450413  0.09891232    -0.65500
Ni269      Ni  0.37914506  0.40242461  0.20119869     1.34900
C270        C  0.46407496  0.45359951  0.09601546     0.85600
O271        O  0.37380181  0.48402483  0.18987752    -0.78400
O272        O  0.35978182  0.43847666  0.23440320    -0.88700
C273        C  0.45280871  0.54605707  0.18106057     0.85200
O274        O  0.41831765  0.40154746  0.23627993    -0.66900
O275        O  0.53562151  0.46377982  0.14608814    -0.86200
C276        C  0.43746259  0.42811606  0.24828591     0.86000
C277        C  0.35035488  0.46333237  0.21058737     1.07600
H278        H  0.47716277  0.48023890  0.21124123     0.39400
O279        O  0.46999392  0.47100256  0.18352744    -1.08900
O280        O  0.47724583  0.42925806  0.11302953    -0.65500
Ni281      Ni  0.46172665  0.42098142  0.17359086     1.26300
O282        O  0.42637533  0.45800714  0.24690371    -0.65700
O283        O  0.51023521  0.41373456  0.17942924    -0.78000
C284        C  0.42139767  0.35221717  0.16204123     0.85400
O285        O  0.45083450  0.37097413  0.16270668    -0.65200
Ni286      Ni  0.50361319  0.49937180  0.14848154     1.27400
Ni287      Ni  0.42246881  0.47800749  0.18591464     1.26100
H288        H  0.39764402  0.43502702  0.14047674     0.40000
C289        C  0.41382387  0.18172813  0.18587620    -0.13500
C290        C  0.39147254  0.20092980  0.16129238     0.16900
C291        C  0.36153273  0.18239444  0.14230598     0.03200
C292        C  0.35379297  0.14662090  0.15227060    -0.12000
C293        C  0.37603064  0.12814910  0.17774489    -0.03000
C294        C  0.40696467  0.14594941  0.19280515     0.02400
C295        C  0.39981508  0.23985930  0.15783704     0.09300
N296        N  0.33963386  0.19860959  0.11115444     0.65600
H297        H  0.33082155  0.13262873  0.13853869     0.18500
N298        N  0.43327637  0.12775127  0.21145927     0.76100
H299        H  0.43721449  0.19438718  0.20016774     0.10100
C300        C  0.37395390  0.26220510  0.16247089     0.03800
C301        C  0.38255652  0.29764332  0.15629668    -0.05000
C302        C  0.41703776  0.31352140  0.15682584    -0.23300
C303        C  0.44342688  0.29138643  0.15982065     0.13000
C304        C  0.43455242  0.25529208  0.15495810    -0.12500
N305        N  0.33951383  0.25027682  0.17922797     0.64700
H306        H  0.36108108  0.31294191  0.15675194     0.12500
N307        N  0.47779803  0.30371741  0.17363783     0.61300
H308        H  0.45511139  0.23893981  0.15290781     0.08700
O309        O  0.44421819  0.13547962  0.25153199    -0.40100
O310        O  0.45196045  0.11253325  0.18342682    -0.39300
O311        O  0.30815460  0.18714195  0.10877626    -0.39300
O312        O  0.35198026  0.22294898  0.08361796    -0.37000
O313        O  0.48181238  0.32558124  0.20585984    -0.37900
O314        O  0.50229142  0.28609189  0.16442254    -0.34100
O315        O  0.33443094  0.24239530  0.22229759    -0.35500
O316        O  0.31430432  0.25778441  0.15601204    -0.39800
C317        C  0.40368246  0.17234600  0.02430968    -0.13500
C318        C  0.43552865  0.19294641  0.01830109     0.16900
C319        C  0.46983865  0.17273931  0.34734557     0.03200
C320        C  0.46668188  0.13636939  0.34982699    -0.12000
C321        C  0.43093275  0.11954685  0.02006988    -0.03000
C322        C  0.40086167  0.13648258  0.02176661     0.02400
C323        C  0.43624372  0.23173859  0.01968144     0.09300
N324        N  0.50307437  0.19094268  0.33619223     0.65600
H325        H  0.48952929  0.12311164  0.34623781     0.18500
N326        N  0.36730174  0.11848400  0.01559049     0.76100
H327        H  0.38009218  0.18379508  0.02955284     0.10100
C328        C  0.41383275  0.24571077  0.33432988     0.03800
C329        C  0.40758963  0.28399120  0.01214042    -0.05000
C330        C  0.43570130  0.30436629  0.03062497    -0.23300
C331        C  0.46564952  0.28833333  0.04051632     0.13000
C332        C  0.46407927  0.25208618  0.03937199    -0.12500
N333        N  0.39028858  0.22887219  0.30246934     0.64700
H334        H  0.39064968  0.29242216  0.32764857     0.12500
N335        N  0.49856433  0.30798102  0.04681014     0.61300
H336        H  0.48555386  0.24010183  0.05243664     0.08700
O337        O  0.35283383  0.12360732  0.97753566    -0.40100
O338        O  0.34821058  0.10994019  0.05139730    -0.39300
O339        O  0.52602050  0.19217099  0.36652633    -0.39300
O340        O  0.51199665  0.19710730  0.29353467    -0.37000
O341        O  0.51974856  0.29646758  0.07378601    -0.37900
O342        O  0.51032603  0.32947783  0.01503011    -0.34100
O343        O  0.35839618  0.22485780  0.31307216    -0.35500
O344        O  0.39995455  0.22782284  0.25994445    -0.39800
C345        C  0.17788229  0.44202830  0.17660827    -0.13500
C346        C  0.20197592  0.47216828  0.17669728     0.16900
C347        C  0.18859784  0.50436557  0.16997975     0.03200
C348        C  0.15285491  0.50565894  0.16729683    -0.12000
C349        C  0.12910521  0.47591999  0.17056639    -0.03000
C350        C  0.14189536  0.44368357  0.17494820     0.02400
C351        C  0.23995456  0.46951816  0.18607793     0.09300
N352        N  0.21029498  0.53648617  0.16621109     0.65600
H353        H  0.14327679  0.53052990  0.16323504     0.18500
N354        N  0.11883119  0.41246398  0.17835868     0.76100
H355        H  0.18691177  0.41683246  0.17900805     0.10100
C356        C  0.25057428  0.44715416  0.22152968     0.03800
C357        C  0.28617098  0.44554489  0.22887937    -0.05000
C358        C  0.31237655  0.46634561  0.20291862    -0.23300
C359        C  0.30167305  0.48772107  0.16669937     0.13000
C360        C  0.26633232  0.48865444  0.15840639    -0.12500
N361        N  0.22571198  0.42544758  0.25019325     0.64700
H362        H  0.29334447  0.42784850  0.25538067     0.12500
N363        N  0.32641680  0.50758372  0.13606092     0.61300
H364        H  0.25981615  0.50344669  0.12835562     0.08700
O365        O  0.11196552  0.39806726  0.21816329    -0.40100
O366        O  0.11221008  0.39545167  0.14170984    -0.39300
O367        O  0.22164990  0.54699156  0.12583582    -0.39300
O368        O  0.20654163  0.55879741  0.19702367    -0.37000
O369        O  0.34593892  0.49267873  0.10888601    -0.37900
O370        O  0.32998940  0.54009541  0.13776928    -0.34100
O371        O  0.22760683  0.39336717  0.25313277    -0.35500
O372        O  0.20118253  0.43794423  0.27139784    -0.39800
C373        C  0.25963375  0.46750618  0.02521470    -0.13500
C374        C  0.25831562  0.50360617  0.02140106     0.16900
C375        C  0.29054885  0.52491729  0.01879470     0.03200
C376        C  0.32164572  0.50998421  0.01210341    -0.12000
C377        C  0.32210109  0.47401417  0.01418752    -0.03000
C378        C  0.29078504  0.45294255  0.02308351     0.02400
C379        C  0.22319894  0.51719970  0.01854028     0.09300
N380        N  0.29273896  0.56113003  0.02778087     0.65600
H381        H  0.34589357  0.52661643  0.00924278     0.18500
N382        N  0.29009469  0.41635675  0.02937304     0.76100
H383        H  0.23583924  0.43436716  0.34965154     0.10100
C384        C  0.21665595  0.54556161  0.98900368     0.03800
C385        C  0.18287719  0.55564156  0.98731458    -0.05000
C386        C  0.15436347  0.53541226  0.00873072    -0.23300
C387        C  0.16023288  0.50428110  0.03174478     0.13000
C388        C  0.19419130  0.49807805  0.04114993    -0.12500
N389        N  0.23907724  0.54756776  0.28370250     0.64700
H390        H  0.17315968  0.55848562  0.28617835     0.12500
N391        N  0.13270901  0.47663811  0.03938254     0.61300
H392        H  0.19761652  0.47617244  0.06353702     0.08700
O393        O  0.28637836  0.39072065  0.39772275    -0.40100
O394        O  0.29735755  0.39791138  0.99515405    -0.39300
O395        O  0.28703261  0.57067521  0.06924937    -0.39300
O396        O  0.30929551  0.58234286  0.99894064    -0.37000
O397        O  0.13656336  0.45160394  0.06664529    -0.37900
O398        O  0.10818258  0.47319610  0.01136811    -0.34100
O399        O  0.23957056  0.57991212  0.27910624    -0.35500
O400        O  0.25962249  0.53215582  0.25866840    -0.39800
C401        C  0.14101796  0.98878291  0.21291025    -0.13500
C402        C  0.15499637  0.96149340  0.19040368     0.16900
C403        C  0.13197109  0.93653737  0.16823718     0.03200
C404        C  0.09680125  0.94104093  0.16564446    -0.12000
C405        C  0.08337861  0.96948701  0.18615561    -0.03000
C406        C  0.10583463  0.99288829  0.21148552     0.02400
C407        C  0.19319908  0.95932903  0.19214922     0.09300
N408        N  0.14346211  0.90601077  0.14911124     0.65600
H409        H  0.07986962  0.92204733  0.14746421     0.18500
N410        N  0.09300414  0.01941808  0.23897385     0.76100
H411        H  0.15737934  0.00620237  0.23368509     0.10100
C412        C  0.21760191  0.98810904  0.17963926     0.03800
C413        C  0.25301538  0.98535272  0.18124333    -0.05000
C414        C  0.26535763  0.95438754  0.19458245    -0.23300
C415        C  0.24145198  0.92600843  0.20852787     0.13000
C416        C  0.20579060  0.92876251  0.20780756    -0.12500
N417        N  0.20712114  0.02031734  0.16436237     0.64700
H418        H  0.27124117  0.00768196  0.17184728     0.12500
N419        N  0.25294384  0.89396768  0.22214619     0.61300
H420        H  0.18800641  0.90687172  0.21991182     0.08700
O421        O  0.10287813  0.05070794  0.22884565    -0.40100
O422        O  0.07865692  0.01165187  0.27876164    -0.39300
O423        O  0.13951278  0.87847488  0.17361665    -0.39300
O424        O  0.14770405  0.90407175  0.10518820    -0.37000
O425        O  0.25642013  0.87149754  0.19138841    -0.37900
O426        O  0.25211957  0.88531190  0.26514624    -0.34100
O427        O  0.20643534  0.04436150  0.19348669    -0.35500
O428        O  0.20902611  0.02789402  0.12102259    -0.39800
C429        C  0.97099472  0.76680042  0.20246531    -0.13500
C430        C  0.00257822  0.76525491  0.17737254     0.16900
C431        C  0.01881390  0.79655044  0.15636537     0.03200
C432        C  0.00324613  0.82741610  0.15992998    -0.12000
C433        C  0.97197766  0.82890026  0.18532215    -0.03000
C434        C  0.95604390  0.79777089  0.20732580     0.02400
C435        C  0.01551317  0.73013755  0.17241974     0.09300
N436        N  0.05114453  0.79824341  0.13116562     0.65600
H437        H  0.01640128  0.85071598  0.14332780     0.18500
N438        N  0.92564597  0.79721369  0.23712234     0.76100
H439        H  0.95817340  0.74371193  0.22004948     0.10100
C440        C  0.04910758  0.72207506  0.18358472     0.03800
C441        C  0.05730142  0.68775595  0.18083072    -0.05000
C442        C  0.03295926  0.66063417  0.16816945    -0.23300
C443        C  0.99950890  0.66831553  0.15757915     0.13000
C444        C  0.99157422  0.70260687  0.15864460    -0.12500
N445        N  0.07521314  0.74741111  0.19956031     0.64700
H446        H  0.08282932  0.68204317  0.18979304     0.12500
N447        N  0.97231996  0.64143863  0.14951423     0.61300
H448        H  0.96569349  0.70759082  0.15025259     0.08700
O449        O  0.89619579  0.78956580  0.22069299    -0.40100
O450        O  0.92821639  0.80447852  0.28003538    -0.39300
O451        O  0.05097324  0.79795937  0.08692117    -0.39300
O452        O  0.07734386  0.81328835  0.15015568    -0.37000
O453        O  0.96150057  0.62097380  0.18299586    -0.37900
O454        O  0.95344075  0.64405710  0.11476709    -0.34100
O455        O  0.10274791  0.75358174  0.17477553    -0.35500
O456        O  0.07665739  0.75227760  0.24316975    -0.39800
C457        C  0.12935497  0.00774594  0.06493612    -0.13500
C458        C  0.14529450  0.98396249  0.03797828     0.16900
C459        C  0.12640755  0.95118075  0.35053187     0.03200
C460        C  0.09055875  0.94740324  0.35961160    -0.12000
C461        C  0.07263632  0.97611727  0.05437924    -0.03000
C462        C  0.09354646  0.00553223  0.07070032     0.02400
C463        C  0.18471182  0.98839743  0.35609365     0.09300
N464        N  0.14087164  0.92540037  0.32338323     0.65600
H465        H  0.07510680  0.92516256  0.34583482     0.18500
N466        N  0.07932979  0.03507168  0.08923440     0.76100
H467        H  0.14472004  0.02965814  0.07945930     0.10100
C468        C  0.19925750  0.02407597  0.01218399     0.03800
C469        C  0.23534059  0.03096150  0.01003427    -0.05000
C470        C  0.25599045  0.00580131  0.02344834    -0.23300
C471        C  0.24031715  0.97258302  0.03712738     0.13000
C472        C  0.20575554  0.96340082  0.36939873    -0.12500
N473        N  0.18087645  0.04912962  0.32915783     0.64700
H474        H  0.24736889  0.05638099  0.99898780     0.12500
N475        N  0.26053625  0.94526707  0.04746456     0.61300
H476        H  0.19439580  0.93833669  0.38242562     0.08700
O477        O  0.07031773  0.05717446  0.06064017    -0.40100
O478        O  0.08734980  0.04488412  0.12986939    -0.39300
O479        O  0.13489572  0.92376386  0.28015159    -0.39300
O480        O  0.14870944  0.89868721  0.34411085    -0.37000
O481        O  0.25624165  0.92982252  0.08692260    -0.37900
O482        O  0.27612078  0.92816168  0.34973560    -0.34100
O483        O  0.17796227  0.07612175  0.02770801    -0.35500
O484        O  0.17281026  0.05304288  0.28704365    -0.39800
C485        C  0.94348369  0.76414492  0.05083926    -0.13500
C486        C  0.97392612  0.75797521  0.02555492     0.16900
C487        C  0.99691986  0.78768842  0.01122107     0.03200
C488        C  0.98959419  0.82120983  0.02326262    -0.12000
C489        C  0.95896500  0.82709215  0.04762987    -0.03000
C490        C  0.93542955  0.79779062  0.06048930     0.02400
C491        C  0.97916169  0.72057508  0.01411468     0.09300
N492        N  0.02982742  0.78241553  0.31049988     0.65600
H493        H  0.01096265  0.84043309  0.33916371     0.18500
N494        N  0.90186653  0.80166835  0.07984793     0.76100
H495        H  0.92494460  0.74252426  0.06217322     0.10100
C496        C  0.01036342  0.70578873  0.02112263     0.03800
C497        C  0.01150149  0.66983915  0.01707274    -0.05000
C498        C  0.98255775  0.64730428  0.00533488    -0.23300
C499        C  0.95209494  0.66177243  0.99552287     0.13000
C500        C  0.95060402  0.69774331  0.99992539    -0.12500
N501        N  0.04107618  0.72601453  0.03460630     0.64700
H502        H  0.03529653  0.65918124  0.02414842     0.12500
N503        N  0.92219566  0.63874211  0.31934364     0.61300
H504        H  0.92970811  0.70668406  0.32584206     0.08700
O505        O  0.87844174  0.80890677  0.05311286    -0.40100
O506        O  0.89670906  0.80172567  0.12384827    -0.39300
O507        O  0.05967150  0.78915372  0.32607836    -0.39300
O508        O  0.02586649  0.78894883  0.26767160    -0.37000
O509        O  0.89969806  0.63048951  0.35171598    -0.37900
O510        O  0.91419011  0.63492824  0.27697071    -0.34100
O511        O  0.04641657  0.72898419  0.07782083    -0.35500
O512        O  0.06678266  0.72916659  0.00609506    -0.39800
C513        C  0.48050332  0.71148312  0.20658800    -0.13500
C514        C  0.45025915  0.69333946  0.19079715     0.16900
C515        C  0.42313296  0.71173201  0.17641865     0.03200
C516        C  0.42734877  0.74782719  0.17712966    -0.12000
C517        C  0.45879828  0.76563399  0.18928432    -0.03000
C518        C  0.48636869  0.74715695  0.20185986     0.02400
C519        C  0.44943980  0.65559343  0.18675044     0.09300
N520        N  0.39186999  0.69446092  0.15938448     0.65600
H521        H  0.40654039  0.76212062  0.16664948     0.18500
N522        N  0.52118971  0.76335175  0.20454154     0.76100
H523        H  0.50102253  0.69751598  0.21887726     0.10100
C524        C  0.47785994  0.64124546  0.16612393     0.03800
C525        C  0.47786406  0.60581270  0.16561347    -0.05000
C526        C  0.45024358  0.58342199  0.18527050    -0.23300
C527        C  0.42177084  0.59765607  0.20646636     0.13000
C528        C  0.42178442  0.63360638  0.20702180    -0.12500
N529        N  0.50687407  0.66217757  0.14454309     0.64700
H530        H  0.49999496  0.59593582  0.14889723     0.12500
N531        N  0.39240912  0.57654401  0.22668383     0.61300
H532        H  0.40044829  0.64435434  0.22446696     0.08700
O533        O  0.53403409  0.78305225  0.17133668    -0.40100
O534        O  0.54145827  0.75105151  0.23227453    -0.39300
O535        O  0.36470288  0.69260416  0.18511929    -0.39300
O536        O  0.38948717  0.68951793  0.11580322    -0.37000
O537        O  0.39319379  0.56593284  0.26870268    -0.37900
O538        O  0.36345371  0.57779520  0.20877475    -0.34100
O539        O  0.50359957  0.67760862  0.10595412    -0.35500
O540        O  0.53669366  0.66033302  0.15956649    -0.39800
C541        C  0.68592830  0.93017269  0.21207299    -0.13500
C542        C  0.71000880  0.90590796  0.21426513     0.16900
C543        C  0.69777406  0.87079553  0.20501683     0.03200
C544        C  0.66318745  0.86144304  0.19358807    -0.12000
C545        C  0.63998477  0.88601864  0.19005140    -0.03000
C546        C  0.65181344  0.92087213  0.19859321     0.02400
C547        C  0.74715430  0.91768212  0.22598279     0.09300
N548        N  0.71980548  0.84397953  0.20641131     0.68400
H549        H  0.65411086  0.83450711  0.18821530     0.18500
N550        N  0.62978048  0.94736618  0.19256847     0.76100
H551        H  0.69333412  0.95670869  0.22119749     0.10100
C552        C  0.76570856  0.94886401  0.20749299     0.03800
C553        C  0.80044348  0.95799737  0.21836037    -0.05000
C554        C  0.81866076  0.93614637  0.24530400    -0.23300
C555        C  0.80045408  0.90474093  0.26298652     0.13000
C556        C  0.76492294  0.89716617  0.25575520    -0.12500
N557        N  0.75068387  0.97104019  0.17555032     0.64700
H558        H  0.81367792  0.98187929  0.20349210     0.12500
N559        N  0.81810035  0.87839514  0.28377776     0.61300
H560        H  0.75159832  0.87412178  0.27243702     0.08700
O561        O  0.62539907  0.95831370  0.15145124    -0.40100
O562        O  0.62322501  0.96586411  0.22703988    -0.39300
O563        O  0.71602538  0.82240075  0.24030513    -0.39300
O564        O  0.73459030  0.83589285  0.16869819    -0.37000
O565        O  0.80967909  0.86747763  0.32501575    -0.37900
O566        O  0.83533016  0.86045711  0.25736928    -0.34100
O567        O  0.75669576  0.96821703  0.13202692    -0.35500
O568        O  0.74184617  0.99921707  0.19036022    -0.39800
C569        C  0.47257773  0.70068595  0.32726409    -0.13500
C570        C  0.49810337  0.67859777  0.99345714     0.16900
C571        C  0.53184817  0.69255851  0.00574547     0.03200
C572        C  0.53923076  0.72831648  0.01399344    -0.12000
C573        C  0.51360752  0.75072768  0.01170398    -0.03000
C574        C  0.48083492  0.73595724  0.33671735     0.02400
C575        C  0.48844218  0.64061594  0.98433350     0.09300
N576        N  0.55886910  0.67091098  0.01070455     0.65600
H577        H  0.56518256  0.73873551  0.02237636     0.18500
N578        N  0.45347623  0.75715564  0.34146458     0.76100
H579        H  0.44617969  0.69169136  0.31970310     0.10100
C580        C  0.45747430  0.62216778  0.00341966     0.03800
C581        C  0.44965377  0.58677655  0.99508702    -0.05000
C582        C  0.47242579  0.56812782  0.96935312    -0.23300
C583        C  0.50394152  0.58609655  0.95174422     0.13000
C584        C  0.51066937  0.62208394  0.95705002    -0.12500
N585        N  0.43547275  0.63697155  0.37382570     0.64700
H586        H  0.42648588  0.57158030  0.35326791     0.12500
N587        N  0.53105318  0.56774745  0.93350368     0.61300
H588        H  0.53435390  0.63527423  0.94145496     0.08700
O589        O  0.43552904  0.76191153  0.30640232    -0.40100
O590        O  0.44124672  0.76201856  0.38216839    -0.39300
O591        O  0.58740241  0.67837974  0.98856132    -0.39300
O592        O  0.55451739  0.64453851  0.03753819    -0.37000
O593        O  0.54880489  0.55226426  0.96142705    -0.37900
O594        O  0.53768782  0.56726688  0.88982428    -0.34100
O595        O  0.40698767  0.64490098  0.35994956    -0.35500
O596        O  0.43770400  0.63630912  0.07757131    -0.39800
C597        C  0.75492419  0.97735274  0.00291276    -0.13500
C598        C  0.73174279  0.95036166  0.02210298     0.16900
C599        C  0.74451909  0.92347764  0.04763017     0.03200
C600        C  0.77974090  0.92342533  0.05205064    -0.12000
C601        C  0.80330585  0.95011487  0.03253679    -0.03000
C602        C  0.79040721  0.97794543  0.00898522     0.02400
C603        C  0.69453538  0.94879955  0.01343396     0.09300
N604        N  0.72194431  0.89684680  0.07152839     0.65600
H605        H  0.78845091  0.90231675  0.07189988     0.18500
N606        N  0.81223753  0.00835535  0.99466724     0.76100
H607        H  0.74555950  0.99815541  0.98319831     0.10100
C608        C  0.67493930  0.97641875  0.02280153     0.03800
C609        C  0.63899752  0.97107092  0.02044656    -0.05000
C610        C  0.62243781  0.93828677  0.01134843    -0.23300
C611        C  0.64460897  0.91107041  0.33650825     0.13000
C612        C  0.67783741  0.91721819  0.99928032    -0.12500
N613        N  0.69066381  0.00918646  0.03757918     0.64700
H614        H  0.62377588  0.99200009  0.02817230     0.12500
N615        N  0.62943761  0.87642082  0.32883881     0.61300
H616        H  0.69546578  0.89748830  0.32396160     0.08700
O617        O  0.81261641  0.03433548  0.02059880    -0.40100
O618        O  0.82126134  0.01275967  0.95180782    -0.39300
O619        O  0.72320550  0.86562582  0.06113438    -0.39300
O620        O  0.70492113  0.90406327  0.10777002    -0.37000
O621        O  0.61003994  0.86096674  0.36075098    -0.37900
O622        O  0.64295382  0.85850608  0.29824907    -0.34100
O623        O  0.69139821  0.03508404  0.01020349    -0.35500
O624        O  0.69569405  0.01380261  0.08074266    -0.39800
C625        C  0.88929671  0.13756980  0.21655493    -0.13500
C626        C  0.91772992  0.16266219  0.20673187     0.16900
C627        C  0.95012317  0.15132930  0.19578881     0.03200
C628        C  0.95343751  0.11606687  0.19455575    -0.12000
C629        C  0.92546763  0.09093313  0.20521159    -0.03000
C630        C  0.89283104  0.10193569  0.21539011     0.02400
C631        C  0.91365915  0.20039766  0.20529356     0.09300
N632        N  0.98009604  0.17521966  0.18493107     0.65600
H633        H  0.97865083  0.10826613  0.18589321     0.18500
N634        N  0.86264106  0.07763661  0.22062101     0.76100
H635        H  0.86411108  0.14560297  0.22442992     0.10100
C636        C  0.89030254  0.21424566  0.17542564     0.03800
C637        C  0.89178599  0.25020010  0.16868831    -0.05000
C638        C  0.91632675  0.27304896  0.19114513    -0.23300
C639        C  0.93791288  0.25917680  0.22349893     0.13000
C640        C  0.93579572  0.22337041  0.23104207    -0.12500
N641        N  0.86545529  0.19220324  0.15088259     0.64700
H642        H  0.87363563  0.26033910  0.14575374     0.12500
N643        N  0.96397320  0.28084573  0.24639368     0.61300
H644        H  0.95259701  0.21346559  0.25609646     0.08700
O645        O  0.84704369  0.06752256  0.18430451    -0.40100
O646        O  0.84660025  0.07457131  0.25992569    -0.39300
O647        O  0.99975074  0.18503808  0.21763509    -0.39300
O648        O  0.99181767  0.17823027  0.14299329    -0.37000
O649        O  0.99412359  0.28492049  0.22813724    -0.37900
O650        O  0.95957074  0.28739734  0.28936267    -0.34100
O651        O  0.83401921  0.18948644  0.16394816    -0.35500
O652        O  0.87519113  0.17346936  0.11846463    -0.39800
C653        C  0.68463285  0.35701266  0.19766740    -0.13500
C654        C  0.67683444  0.38964238  0.18100858     0.16900
C655        C  0.70573913  0.41366176  0.16532678     0.03200
C656        C  0.73942061  0.40408230  0.16415067    -0.12000
C657        C  0.74650069  0.37158018  0.17943685    -0.03000
C658        C  0.71886959  0.34800016  0.19680980     0.02400
C659        C  0.63945099  0.39840699  0.17989172     0.09300
N660        N  0.70242139  0.44824767  0.15026810     0.65600
H661        H  0.76072240  0.42280427  0.15209173     0.18500
N662        N  0.72538045  0.31465804  0.21328229     0.76100
H663        H  0.66439337  0.33851146  0.21257579     0.10100
C664        C  0.61100706  0.37612421  0.16256474     0.03800
C665        C  0.57836713  0.38818273  0.15747929    -0.05000
C666        C  0.57230665  0.42173307  0.16990855    -0.23300
C667        C  0.59963685  0.44296840  0.18980371     0.13000
C668        C  0.63188868  0.43085886  0.19580764    -0.12500
N669        N  0.61342181  0.34062404  0.15224649     0.64700
H670        H  0.55738174  0.37088845  0.14398753     0.12500
N671        N  0.59473567  0.47655713  0.20639490     0.61300
H672        H  0.65087761  0.44696840  0.21460970     0.08700
O673        O  0.73008067  0.30992341  0.25647114    -0.40100
O674        O  0.73399705  0.29284599  0.18406830    -0.39300
O675        O  0.70404351  0.47142572  0.18089966    -0.39300
O676        O  0.71268395  0.45708554  0.10885637    -0.37000
O677        O  0.58788040  0.48030078  0.24953873    -0.37900
O678        O  0.60585878  0.50277837  0.18143394    -0.34100
O679        O  0.60767841  0.31870466  0.18554374    -0.35500
O680        O  0.60779686  0.33053380  0.11094054    -0.39800
C681        C  0.92826690  0.14536569  0.32357615    -0.13500
C682        C  0.89881215  0.15346787  0.00171166     0.16900
C683        C  0.87471317  0.12522428  0.01684220     0.03200
C684        C  0.88415685  0.09164629  0.01654437    -0.12000
C685        C  0.91698479  0.08450696  0.00090000    -0.03000
C686        C  0.93893523  0.11197856  0.32597411     0.02400
C687        C  0.88986306  0.18996671  0.00352243     0.09300
N688        N  0.84082024  0.12993677  0.03454390     0.65600
H689        H  0.86551903  0.07087305  0.02951444     0.18500
N690        N  0.97501485  0.10867102  0.32210071     0.76100
H691        H  0.94730998  0.16684780  0.31360861     0.10100
C692        C  0.90966242  0.21613141  0.02820555     0.03800
C693        C  0.89874831  0.24930202  0.03168836    -0.05000
C694        C  0.86314147  0.25594405  0.34330699    -0.23300
C695        C  0.84464346  0.23014567  0.31669046     0.13000
C696        C  0.86111283  0.19896176  0.97973207    -0.12500
N697        N  0.94117057  0.20971614  0.04928377     0.64700
H698        H  0.91411685  0.26892602  0.05088221     0.12500
N699        N  0.81531459  0.23743277  0.29129592     0.61300
H700        H  0.84065629  0.17768295  0.29336639     0.08700
O701        O  0.99246866  0.11077173  0.35870978    -0.40100
O702        O  0.99047161  0.11109254  0.28231845    -0.39300
O703        O  0.83296707  0.12272385  0.07727133    -0.39300
O704        O  0.81682639  0.13009502  0.00595386    -0.37000
O705        O  0.81854077  0.24250048  0.24733505    -0.37900
O706        O  0.78554133  0.22990142  0.30991141    -0.34100
O707        O  0.96927537  0.22662599  0.03525091    -0.35500
O708        O  0.94153508  0.18507948  0.07848080    -0.39800
C709        C  0.63248968  0.39764578  0.00299394    -0.13500
C710        C  0.65335593  0.42529825  0.02250422     0.16900
C711        C  0.63491827  0.44739457  0.37361697     0.03200
C712        C  0.59889323  0.44434252  0.37786063    -0.12000
C713        C  0.57834898  0.41760769  0.35639928    -0.03000
C714        C  0.59623467  0.39550862  0.00559597     0.02400
C715        C  0.69204246  0.42603376  0.01862283     0.09300
N716        N  0.65380106  0.47800466  0.39067240     0.65600
H717        H  0.58677570  0.46508321  0.39419820     0.18500
N718        N  0.57707152  0.36869559  0.98057627     0.76100
H719        H  0.64447707  0.37829535  0.98336696     0.10100
C720        C  0.70855982  0.39717837  0.03267774     0.03800
C721        C  0.74463643  0.39891576  0.03082697    -0.05000
C722        C  0.76313277  0.42638321  0.34854092    -0.23300
C723        C  0.74723680  0.45323114  0.32755822     0.13000
C724        C  0.71099364  0.45108508  0.32676035    -0.12500
N725        N  0.68915634  0.36563242  0.04864729     0.64700
H726        H  0.75667909  0.37672497  0.04243586     0.12500
N727        N  0.76741882  0.48345719  0.30869721     0.61300
H728        H  0.69929893  0.47170285  0.30992743     0.08700
O729        O  0.57945208  0.33769103  0.99220381    -0.40100
O730        O  0.56720971  0.37529154  0.93995792    -0.39300
O731        O  0.66116094  0.50339970  0.36263382    -0.39300
O732        O  0.65245024  0.48359951  0.43421515    -0.37000
O733        O  0.77306485  0.48645291  0.26478185    -0.37900
O734        O  0.77158686  0.51001417  0.33365647    -0.34100
O735        O  0.69270416  0.33780614  0.02784715    -0.35500
O736        O  0.66850443  0.36544983  0.08361634    -0.39800
C737        C  0.87515357  0.38063862  0.62614389     0.30900
C738        C  0.87191924  0.38099974  0.39748442     0.30900
C739        C  0.91054114  0.39047544  0.65028962    -0.05300
C740        C  0.85212505  0.40505339  0.65275039    -0.06100
C741        C  0.86326475  0.34667365  0.65451310    -0.06000
C742        C  0.90580085  0.39335524  0.36721867    -0.05300
C743        C  0.84785287  0.40465476  0.37190601    -0.06100
C744        C  0.86043501  0.34608541  0.37145417    -0.06000
C745        C  0.92772527  0.42323698  0.37211032    -0.31400
N746        N  0.94849299  0.43124490  0.33376781     0.15200
C747        C  0.94007662  0.41121737  0.63313917    -0.31400
H748        H  0.94966241  0.41380958  0.59703143     0.17100
C749        C  0.81812019  0.41850837  0.38612561    -0.30300
N750        N  0.80434919  0.42737925  0.67664634     0.13900
C751        C  0.82382047  0.42016606  0.63852541    -0.30300
C752        C  0.85669117  0.31128983  0.38449651    -0.30600
N753        N  0.86113203  0.29175113  0.67906421     0.14400
H754        H  0.85776477  0.30111487  0.41981942     0.17000
C755        C  0.85979908  0.31279306  0.64100881    -0.30600
H756        H  0.85983468  0.30428720  0.60520996     0.17000
H757        H  0.81557748  0.42182909  0.60280434     0.17000
H758        H  0.92039097  0.44361248  0.39367458     0.17100
H759        H  0.80834497  0.41982883  0.42191469     0.17000
C760        C  0.87432604  0.38014139  0.46045518     0.30900
C761        C  0.87429367  0.38047048  0.56500550     0.30900
C762        C  0.88827141  0.41436579  0.48689773    -0.05300
C763        C  0.83952045  0.37010526  0.48983778    -0.06100
C764        C  0.89678689  0.35537869  0.48668453    -0.06000
C765        C  0.88487473  0.41557525  0.53781197    -0.05300
C766        C  0.83963725  0.36972008  0.54040631    -0.06100
C767        C  0.89753844  0.35635435  0.53745040    -0.06000
C768        C  0.90565330  0.44474796  0.55229790    -0.31400
N769        N  0.92677714  0.45669993  0.51573171     0.15200
C770        C  0.91890477  0.43589818  0.47913818    -0.31400
H771        H  0.93918673  0.42967220  0.45566901     0.17100
C772        C  0.80545570  0.36414051  0.55615256    -0.30300
N773        N  0.78471526  0.36248723  0.51867210     0.13900
C774        C  0.80512245  0.36466591  0.47866648    -0.30300
C775        C  0.91243961  0.32753412  0.55143077    -0.30600
N776        N  0.91823324  0.30788872  0.51361828     0.14400
H777        H  0.91553446  0.31943664  0.58731827     0.17000
C778        C  0.91016131  0.32520636  0.47428872    -0.30600
H779        H  0.91169788  0.31511154  0.43928836     0.17000
H780        H  0.79527842  0.36436604  0.44365629     0.17000
H781        H  0.90778816  0.45413043  0.58773473     0.17100
H782        H  0.79610201  0.36442774  0.59236161     0.17000
C783        C  0.51568810  0.87339146  0.40408989     0.30900
C784        C  0.51431578  0.87483668  0.63262316     0.30900
C785        C  0.48119891  0.87738587  0.37880411    -0.05300
C786        C  0.53877362  0.90265882  0.37648235    -0.06100
C787        C  0.52624106  0.84106051  0.37584750    -0.06000
C788        C  0.48135150  0.87799780  0.32787438    -0.05300
C789        C  0.53916627  0.90359784  0.32561874    -0.06100
C790        C  0.52678636  0.84273396  0.32499082    -0.06000
C791        C  0.45055736  0.89091153  0.64957181    -0.31400
N792        N  0.43471577  0.90078489  0.35497134     0.15200
C793        C  0.45182290  0.89143624  0.39329625    -0.31400
H794        H  0.44552807  0.89760735  0.42922357     0.17100
C795        C  0.56733300  0.92229318  0.64175165    -0.30300
N796        N  0.58787708  0.93187994  0.35029004     0.13900
C797        C  0.56861533  0.92158875  0.38934991    -0.30300
C798        C  0.52594616  0.80976489  0.64365613    -0.30600
N799        N  0.52464906  0.78694170  0.34657946     0.14400
H800        H  0.52316822  0.80206666  0.60794776     0.17000
C801        C  0.52421552  0.80575943  0.38654401    -0.30600
H802        H  0.51948900  0.79425424  0.42074600     0.17000
H803        H  0.57788147  0.92383510  0.42456693     0.17000
H804        H  0.44441446  0.89737567  0.61402552     0.17100
H805        H  0.57677420  0.92468052  0.60565759     0.17000
C806        C  0.51686355  0.87476227  0.46613167     0.30900
C807        C  0.51503291  0.87523457  0.57068475     0.30900
C808        C  0.51244132  0.90942831  0.49207863    -0.05300
C809        C  0.48800458  0.85116674  0.49420578    -0.06100
C810        C  0.54947011  0.86501137  0.49303654    -0.06000
C811        C  0.51197428  0.90956572  0.54303175    -0.05300
C812        C  0.48702288  0.85163125  0.54518429    -0.06100
C813        C  0.54765420  0.86456294  0.54404450    -0.06000
C814        C  0.49642867  0.93791039  0.55643981    -0.31400
N815        N  0.48669266  0.95462919  0.51768557     0.15200
C816        C  0.49685558  0.93791293  0.47872558    -0.31400
H817        H  0.49006398  0.94357905  0.44318974     0.17100
C818        C  0.47081688  0.82016869  0.55994034    -0.30300
N819        N  0.46363997  0.80037883  0.52226928     0.13900
C820        C  0.47231668  0.81921318  0.48257988    -0.30300
C821        C  0.58087883  0.86725066  0.55878592    -0.30600
N822        N  0.60332179  0.87140173  0.52145858     0.14400
H823        H  0.58810608  0.86966077  0.59472200     0.17000
C824        C  0.58487846  0.86983682  0.48156546    -0.30600
H825        H  0.59649004  0.87444982  0.44679411     0.17000
H826        H  0.47086119  0.80882625  0.44774555     0.17000
H827        H  0.48910253  0.94326631  0.59229440     0.17100
H828        H  0.46878146  0.81064328  0.59577116     0.17000
O829        O  0.02417958  0.00480474  0.70956304    -0.80000
O830        O  0.86382543  0.96553622  0.35446026    -0.64700
O831        O  0.95828241  0.98474252  0.38200346    -1.11300
C832        C  0.95389883  0.86088462  0.38324758     1.06900
O833        O  0.85129455  0.91933179  0.40294893    -0.77900
O834        O  0.90769642  0.92589249  0.44969697    -0.65500
Ni835      Ni  0.98612679  0.01810647  0.67711442     1.34900
C836        C  0.93913951  0.93709634  0.45248654     0.85600
O837        O  0.90599750  0.02409779  0.36656180    -0.78400
O838        O  0.94984160  0.03649316  0.64451275    -0.88700
C839        C  0.84236292  0.94412076  0.37774024     0.85200
O840        O  0.98475954  0.97696696  0.64522650    -0.66900
O841        O  0.92854574  0.86552231  0.41141088    -0.86200
C842        C  0.95764077  0.95916979  0.63268419     0.86000
C843        C  0.92422640  0.04667244  0.34076217     1.07600
H844        H  0.90555717  0.91955059  0.67183549     0.39400
O845        O  0.91680124  0.92720286  0.36678479    -1.08900
O846        O  0.96268148  0.92310949  0.43332950    -0.65500
Ni847      Ni  0.96695202  0.93513589  0.37100021     1.26300
O848        O  0.92813652  0.97089667  0.63539488    -0.65700
O849        O  0.97195594  0.88642582  0.36185388    -0.78000
C850        C  0.03656452  0.97326417  0.37845135     0.85400
O851        O  0.01687120  0.94461100  0.37606466    -0.65200
Ni852      Ni  0.89117715  0.89452698  0.40665523     1.27400
Ni853      Ni  0.91104917  0.97531656  0.36813286     1.26100
H854        H  0.95771704  0.00029943  0.40728932     0.40000
O855        O  0.03867080  0.00141359  0.51640291    -0.80000
O856        O  0.87381751  0.96959079  0.55978218    -0.64700
O857        O  0.97459029  0.98623127  0.55090647    -1.11300
C858        C  0.95981577  0.86097276  0.52814357     1.06900
O859        O  0.87467257  0.92415370  0.60724415    -0.77900
O860        O  0.93998555  0.89929694  0.62446060    -0.65500
Ni861      Ni  0.99523505  0.01915043  0.50665907     1.34900
C862        C  0.96304779  0.92458844  0.61930615     0.85600
O863        O  0.92085963  0.02916520  0.56109489    -0.78400
O864        O  0.95439748  0.04147388  0.49691242    -0.88700
C865        C  0.85785742  0.94284867  0.58129865     0.85200
O866        O  0.97941277  0.98124439  0.47170158    -0.66900
O867        O  0.93169549  0.86063312  0.55230605    -0.86200
C868        C  0.94774074  0.96875744  0.47283197     0.86000
C869        C  0.93390411  0.05068864  0.52894895     1.07600
H870        H  0.91155941  0.92528887  0.52407122     0.39400
O871        O  0.92780379  0.93125214  0.54715877    -1.08900
O872        O  0.98776202  0.92207574  0.59145614    -0.65500
Ni873      Ni  0.97743497  0.93711065  0.53143215     1.26300
O874        O  0.92396047  0.98355433  0.49206411    -0.65700
O875        O  0.97818434  0.88899816  0.51397295    -0.78000
C876        C  0.04788368  0.97108398  0.51882074     0.85400
O877        O  0.02645480  0.94383096  0.51847960    -0.65200
Ni878      Ni  0.90482305  0.89319511  0.58082779     1.27400
Ni879      Ni  0.92387842  0.97977580  0.55721439     1.26100
H880        H  0.98828097  0.99570969  0.57545748     0.40000
C881        C  0.02996486  0.53617216  0.28435511     0.30900
C882        C  0.02937231  0.53376265  0.38878569     0.30900
C883        C  0.01715482  0.50071479  0.31050285    -0.05300
C884        C  0.06526431  0.54516667  0.30893413    -0.06100
C885        C  0.00821068  0.56102598  0.31267225    -0.06000
C886        C  0.01392090  0.50081550  0.36144839    -0.05300
C887        C  0.06466031  0.54051845  0.35968026    -0.06100
C888        C  0.00861663  0.56034750  0.36316748    -0.06000
C889        C  0.98386995  0.47891020  0.36947958    -0.31400
N890        N  0.97584120  0.45877343  0.33230342     0.15200
C891        C  0.99648004  0.47153934  0.29550608    -0.31400
H892        H  0.99812546  0.46290186  0.59483968     0.17100
C893        C  0.09322044  0.52346671  0.36573897    -0.30300
N894        N  0.11523751  0.52634559  0.32798865     0.13900
C895        C  0.09845584  0.54010670  0.29270283    -0.30300
C896        C  0.99244954  0.58834132  0.37759960    -0.30600
N897        N  0.98422960  0.60708676  0.33967727     0.14400
H898        H  0.98894263  0.59593941  0.41344836     0.17000
C899        C  0.99206368  0.58967150  0.30042322    -0.30600
H900        H  0.99033179  0.60033682  0.59648922     0.17000
H901        H  0.11055510  0.54664899  0.59196100     0.17000
H902        H  0.96406472  0.48405493  0.39429379     0.17100
H903        H  0.09180067  0.50150794  0.38860505     0.17000
C904        C  0.03198682  0.53430397  0.45241332     0.30900
C905        C  0.03036166  0.53643652  0.55693436     0.30900
C906        C  0.99753623  0.52166012  0.48168106    -0.05300
C907        C  0.05668834  0.51241394  0.48080381    -0.06100
C908        C  0.04187681  0.56973069  0.47719887    -0.06000
C909        C  0.99533262  0.52607412  0.53227314    -0.05300
C910        C  0.05309129  0.51079597  0.53167229    -0.06100
C911        C  0.04227771  0.57041597  0.52783632    -0.06000
C912        C  0.96578075  0.50523434  0.54916244    -0.31400
N913        N  0.95461271  0.48376419  0.51460703     0.15200
C914        C  0.97639988  0.49111177  0.47707844    -0.31400
H915        H  0.98399095  0.47059395  0.45583070     0.17100
C916        C  0.08001607  0.49420825  0.54823318    -0.30300
N917        N  0.10339620  0.49214984  0.51265498     0.13900
C918        C  0.09115751  0.50691178  0.47433949    -0.30300
C919        C  0.04515437  0.60485881  0.53980707    -0.30600
N920        N  0.04433387  0.62478499  0.50047951     0.14400
H921        H  0.04519858  0.61485776  0.57498827     0.17000
C922        C  0.04418937  0.60405003  0.46246657    -0.30600
H923        H  0.04396373  0.61349713  0.42665887     0.17000
H924        H  0.10907612  0.52062928  0.44934021     0.17000
H925        H  0.95549117  0.50343165  0.58498222     0.17100
H926        H  0.08447844  0.48810217  0.58451418     0.17000
C927        C  0.38003582  0.00425541  0.63686879     0.30900
C928        C  0.37943438  0.00329684  0.40802544     0.30900
C929        C  0.38428512  0.96985212  0.66423183    -0.05300
C930        C  0.40776475  0.02896857  0.66268575    -0.06100
C931        C  0.34732591  0.01382339  0.66452776    -0.06000
C932        C  0.38394490  0.96933088  0.38121864    -0.05300
C933        C  0.40787463  0.02799642  0.38004087    -0.06100
C934        C  0.34715427  0.01335365  0.38195683    -0.06000
C935        C  0.39927119  0.94076900  0.39449366    -0.31400
N936        N  0.40960262  0.92438034  0.35551631     0.15200
C937        C  0.39941392  0.94115748  0.65081184    -0.31400
H938        H  0.40629203  0.93542890  0.61494248     0.17100
C939        C  0.42306888  0.06009684  0.39251691    -0.30300
N940        N  0.43127388  0.07998217  0.35350465     0.13900
C941        C  0.42294694  0.06170278  0.64974208    -0.30300
C942        C  0.31284397  0.01271883  0.39560703    -0.30600
N943        N  0.29365917  0.01317333  0.35677237     0.14400
H944        H  0.30212982  0.00988282  0.43107405     0.17000
C945        C  0.31389340  0.01539808  0.65147154    -0.30600
H946        H  0.30478954  0.01468586  0.61597536     0.17000
H947        H  0.42458201  0.07250608  0.61458839     0.17000
H948        H  0.40569152  0.93472678  0.43006543     0.17100
H949        H  0.42442712  0.06985608  0.42780991     0.17000
C950        C  0.37938444  0.00291337  0.47015156     0.30900
C951        C  0.37987319  0.00378216  0.57482870     0.30900
C952        C  0.41382268  0.99942129  0.49530321    -0.05300
C953        C  0.36894938  0.03515898  0.49661922    -0.06100
C954        C  0.35560557  0.97439353  0.49917147    -0.06000
C955        C  0.41407287  0.99970622  0.54607090    -0.05300
C956        C  0.36953366  0.03589379  0.54722355    -0.06100
C957        C  0.35551029  0.97490906  0.55033780    -0.06000
C958        C  0.44396288  0.98671466  0.55817181    -0.31400
N959        N  0.46124040  0.97784790  0.51850904     0.15200
C960        C  0.44352878  0.98630720  0.48043674    -0.31400
H961        H  0.44981240  0.98019424  0.44449411     0.17100
C962        C  0.36933995  0.07012070  0.55871575    -0.30300
N963        N  0.36864432  0.08976161  0.51893156     0.13900
C964        C  0.36750544  0.06852849  0.48164503    -0.30300
C965        C  0.32304245  0.95971276  0.56515769    -0.30600
N966        N  0.30362196  0.95120126  0.52755171     0.14400
H967        H  0.31254608  0.95937538  0.60077051     0.17000
C968        C  0.32363068  0.95871867  0.48801685    -0.30600
H969        H  0.31391010  0.95768076  0.45305362     0.17000
H970        H  0.36943682  0.07706057  0.44571410     0.17000
H971        H  0.45064337  0.98102215  0.59375072     0.17100
H972        H  0.37207164  0.08014897  0.59332894     0.17000
O973        O  0.40389825  0.34723240  0.37552553    -0.80000
O974        O  0.43518908  0.51117900  0.32350119    -0.64700
O975        O  0.41883824  0.40990888  0.33337156    -1.11300
C976        C  0.54740334  0.42955036  0.68276449     1.06900
O977        O  0.48297707  0.51176525  0.60548854    -0.77900
O978        O  0.50600433  0.44613066  0.58842441    -0.65500
Ni979      Ni  0.38507342  0.39082285  0.37845847     1.34900
C980        C  0.48005812  0.42403640  0.59488397     0.85600
O981        O  0.37780722  0.46402177  0.31879826    -0.78400
O982        O  0.36085623  0.43148273  0.38235607    -0.88700
C983        C  0.46129905  0.52766804  0.30150910     0.85200
O984        O  0.42180960  0.40867755  0.41318442    -0.66900
O985        O  0.54662591  0.45668038  0.65776868    -0.86200
C986        C  0.43472162  0.44010202  0.41026521     0.86000
C987        C  0.35476846  0.45237591  0.34942386     1.07600
H988        H  0.48087554  0.47388407  0.35743746     0.39400
O989        O  0.47384323  0.45729737  0.33478057    -1.08900
O990        O  0.48314336  0.39909254  0.62160973    -0.65500
Ni991      Ni  0.46757549  0.40750854  0.34921137     1.26300
O992        O  0.42014596  0.46306124  0.39011519    -0.65700
O993        O  0.51615811  0.40610959  0.36229503    -0.78000
C994        C  0.43399473  0.33790600  0.36879837     0.85400
O995        O  0.46092806  0.35897338  0.36091173    -0.65200
Ni996      Ni  0.51385156  0.48229256  0.63075875     1.27400
Ni997      Ni  0.42583666  0.46095468  0.32528285     1.26100
H998        H  0.41632167  0.39519468  0.64281637     0.40000
O999        O  0.39802671  0.36280579  0.51004037    -0.80000
O1000       O  0.44091764  0.52330287  0.53427209    -0.64700
O1001       O  0.41840584  0.43011456  0.50086535    -1.11300
C1002       C  0.54218481  0.43160131  0.49737938     1.06900
O1003       O  0.48348719  0.53597118  0.48001507    -0.77900
O1004       O  0.47924446  0.47981071  0.43151136    -0.65500
Ni1005     Ni  0.38546223  0.40250766  0.53924470     1.34900
C1006       C  0.46690490  0.44858110  0.42899398     0.85600
O1007       O  0.38190139  0.48430395  0.52074043    -0.78400
O1008       O  0.36747065  0.44075927  0.56865148    -0.88700
C1009       C  0.46079094  0.54497261  0.50966076     0.85200
O1010       O  0.42627146  0.40360538  0.57070923    -0.66900
O1011       O  0.54009840  0.45969686  0.47363434    -0.86200
C1012       C  0.44506815  0.43030901  0.58253548     0.86000
C1013       C  0.35845552  0.46489040  0.54304738     1.07600
H1014       H  0.48560343  0.47995485  0.54239721     0.39400
O1015       O  0.47704430  0.46956992  0.51500016    -1.08900
O1016       O  0.48074393  0.42474025  0.44645486    -0.65500
Ni1017     Ni  0.46749109  0.41914705  0.50841543     1.26300
O1018       O  0.43409296  0.46007918  0.57953174    -0.65700
O1019       O  0.51562184  0.41239597  0.51457849    -0.78000
C1020       C  0.42608257  0.35018937  0.50135889     0.85400
O1021       O  0.45585880  0.36856309  0.50089062    -0.65200
Ni1022     Ni  0.50950344  0.49639313  0.47623649     1.27400
Ni1023     Ni  0.42979619  0.47710251  0.51723084     1.26100
H1024       H  0.40249884  0.43210326  0.47662669     0.40000
C1025       C  0.41146620  0.18078326  0.52771940    -0.13500
C1026       C  0.39091885  0.19993889  0.49976458     0.16900
C1027       C  0.36207873  0.18112643  0.47832049     0.03200
C1028       C  0.35387773  0.14548122  0.48853213    -0.12000
C1029       C  0.37537617  0.12695686  0.51501714    -0.03000
C1030       C  0.40516716  0.14488134  0.53325531     0.02400
C1031       C  0.40078002  0.23879272  0.49447040     0.09300
N1032       N  0.34211914  0.19653517  0.44387716     0.65600
H1033       H  0.33149554  0.13143418  0.47339027     0.18500
N1034       N  0.43144100  0.12684409  0.55268843     0.76100
H1035       H  0.43373944  0.19331371  0.54468151     0.10100
C1036       C  0.37608899  0.26257106  0.49037771     0.03800
C1037       C  0.38708309  0.29769954  0.48354899    -0.05000
C1038       C  0.42092103  0.31200384  0.49327929    -0.23300
C1039       C  0.44498917  0.28883229  0.50358078     0.13000
C1040       C  0.43574442  0.25305943  0.49838546    -0.12500
N1041       N  0.33987369  0.25282696  0.49930652     0.64700
H1042       H  0.36734937  0.31444550  0.47710375     0.12500
N1043       N  0.47598407  0.30002876  0.52721071     0.61300
H1044       H  0.45587982  0.23646850  0.50209176     0.08700
O1045       O  0.44593335  0.13805876  0.58925281    -0.40100
O1046       O  0.44641094  0.10667632  0.52682273    -0.39300
O1047       O  0.31067595  0.18556419  0.43960388    -0.39300
O1048       O  0.35637211  0.21896432  0.41482152    -0.37000
O1049       O  0.47361254  0.30695147  0.57036744    -0.37900
O1050       O  0.50460091  0.29299373  0.51027334    -0.34100
O1051       O  0.32936287  0.24197357  0.53991027    -0.35500
O1052       O  0.31846504  0.26318584  0.47155764    -0.39800
C1053       C  0.40790582  0.17017774  0.35818765    -0.13500
C1054       C  0.43997803  0.19027244  0.35234099     0.16900
C1055       C  0.47191220  0.17242512  0.68942694     0.03200
C1056       C  0.46782097  0.13597457  0.68991317    -0.12000
C1057       C  0.43414965  0.11699829  0.35365682    -0.03000
C1058       C  0.40442799  0.13439857  0.35630681     0.02400
C1059       C  0.44074314  0.22891856  0.35331170     0.09300
N1060       N  0.50611751  0.18970619  0.68338306     0.65600
H1061       H  0.49038689  0.12218877  0.68777548     0.18500
N1062       N  0.37031013  0.11687590  0.35325190     0.76100
H1063       H  0.38459048  0.18201495  0.36308665     0.10100
C1064       C  0.41681942  0.24671214  0.67198870     0.03800
C1065       C  0.41160946  0.28046518  0.34278832    -0.05000
C1066       C  0.43716079  0.30054948  0.36663359    -0.23300
C1067       C  0.46594045  0.28499566  0.38258251     0.13000
C1068       C  0.46638797  0.24910036  0.37754604    -0.12500
N1069       N  0.39280170  0.22984923  0.64059178     0.64700
H1070       H  0.39461946  0.29374304  0.66290991     0.12500
N1071       N  0.49474412  0.30458299  0.40390981     0.61300
H1072       H  0.48651839  0.23690251  0.39399068     0.08700
O1073       O  0.35570209  0.11887456  0.31463036    -0.40100
O1074       O  0.35121404  0.11367803  0.38998318    -0.39300
O1075       O  0.52570858  0.19092853  0.71788719    -0.39300
O1076       O  0.51947103  0.19351145  0.64231427    -0.37000
O1077       O  0.49066771  0.33056515  0.42852744    -0.37900
O1078       O  0.52432653  0.29448313  0.40073989    -0.34100
O1079       O  0.36116390  0.22532744  0.65264643    -0.35500
O1080       O  0.40086534  0.23186155  0.59738291    -0.39800
C1081       C  0.18572028  0.45041778  0.51913370    -0.13500
C1082       C  0.21130055  0.47917734  0.51481572     0.16900
C1083       C  0.19970496  0.51197565  0.50640822     0.03200
C1084       C  0.16438395  0.51570840  0.50922833    -0.12000
C1085       C  0.13934231  0.48740246  0.51715534    -0.03000
C1086       C  0.15025244  0.45431485  0.52121341     0.02400
C1087       C  0.24901890  0.47455758  0.52160476     0.09300
N1088       N  0.22222210  0.54083221  0.48806789     0.65600
H1089       H  0.15623582  0.54097231  0.50274619     0.18500
N1090       N  0.12565347  0.42433236  0.52675807     0.76100
H1091       H  0.19323041  0.42457268  0.52151983     0.10100
C1092       C  0.25945105  0.45277289  0.55786967     0.03800
C1093       C  0.29481793  0.44996428  0.56407409    -0.05000
C1094       C  0.32091897  0.46887477  0.53590017    -0.23300
C1095       C  0.31046294  0.48946362  0.49859479     0.13000
C1096       C  0.27520605  0.49170087  0.49167069    -0.12500
N1097       N  0.23460683  0.43285151  0.58861637     0.64700
H1098       H  0.30190617  0.43294248  0.59156235     0.12500
N1099       N  0.33523869  0.50732904  0.46593507     0.61300
H1100       H  0.26843400  0.50608343  0.46135088     0.08700
O1101       O  0.11755766  0.41231640  0.56760043    -0.40100
O1102       O  0.11870097  0.40564882  0.49170986    -0.39300
O1103       O  0.22049859  0.54828945  0.44495460    -0.39300
O1104       O  0.23327910  0.56439688  0.51537129    -0.37000
O1105       O  0.35356394  0.49063400  0.43938012    -0.37900
O1106       O  0.34017861  0.53987915  0.46532929    -0.34100
O1107       O  0.23454137  0.40050182  0.59187525    -0.35500
O1108       O  0.21148519  0.44706116  0.61045015    -0.39800
C1109       C  0.25813428  0.45352456  0.35027869    -0.13500
C1110       C  0.25462605  0.48928730  0.34773697     0.16900
C1111       C  0.28539575  0.51269552  0.34993993     0.03200
C1112       C  0.31774695  0.50019308  0.34725724    -0.12000
C1113       C  0.32051032  0.46473701  0.34862688    -0.03000
C1114       C  0.29041374  0.44135139  0.35242373     0.02400
C1115       C  0.21893266  0.50031932  0.34169581     0.09300
N1116       N  0.28484342  0.54855440  0.35972725     0.65600
H1117       H  0.34096386  0.51834603  0.34763141     0.18500
N1118       N  0.29230174  0.40500631  0.35768228     0.76100
H1119       H  0.23808352  0.44267103  0.69312964     0.10100
C1120       C  0.21210634  0.52810844  0.31155918     0.03800
C1121       C  0.17783154  0.53599005  0.30675637    -0.05000
C1122       C  0.14950358  0.51489610  0.32727178    -0.23300
C1123       C  0.15626178  0.48523449  0.35305666     0.13000
C1124       C  0.19021469  0.47985249  0.36281432    -0.12500
N1125       N  0.24080700  0.55368030  0.61666249     0.64700
H1126       H  0.17457183  0.56268291  0.61877911     0.12500
N1127       N  0.12930501  0.45823612  0.36514315     0.61300
H1128       H  0.19383490  0.45806234  0.38542081     0.08700
O1129       O  0.28536612  0.39918115  0.73994388    -0.40100
O1130       O  0.30579716  0.38876117  0.32516630    -0.39300
O1131       O  0.28176665  0.55704045  0.40212469    -0.39300
O1132       O  0.29995790  0.57071815  0.33093833    -0.37000
O1133       O  0.12334684  0.44921370  0.40770761    -0.37900
O1134       O  0.11765213  0.43835332  0.33334443    -0.34100
O1135       O  0.24026603  0.58567270  0.60941803    -0.35500
O1136       O  0.26148373  0.53777043  0.59258827    -0.39800
C1137       C  0.14337956  0.98828597  0.54495493    -0.13500
C1138       C  0.15692805  0.96017946  0.52378711     0.16900
C1139       C  0.13351977  0.93420121  0.50421953     0.03200
C1140       C  0.09831758  0.93836033  0.50265294    -0.12000
C1141       C  0.08523491  0.96733265  0.52198575    -0.03000
C1142       C  0.10805074  0.99178345  0.54508213     0.02400
C1143       C  0.19503233  0.95792630  0.52505055     0.09300
N1144       N  0.14463225  0.90299072  0.48674619     0.65600
H1145       H  0.08109197  0.91864906  0.48620203     0.18500
N1146       N  0.09547416  0.01855784  0.57235851     0.76100
H1147       H  0.16020406  0.00686885  0.56356697     0.10100
C1148       C  0.21948283  0.98665292  0.51253391     0.03800
C1149       C  0.25481247  0.98390804  0.51482230    -0.05000
C1150       C  0.26693737  0.95286956  0.52827547    -0.23300
C1151       C  0.24298593  0.92455042  0.54208319     0.13000
C1152       C  0.20743830  0.92741674  0.54116784    -0.12500
N1153       N  0.20911356  0.01877366  0.49673115     0.64700
H1154       H  0.27314151  0.00618193  0.50553796     0.12500
N1155       N  0.25430305  0.89246668  0.55583142     0.61300
H1156       H  0.18960285  0.90569454  0.55370345     0.08700
O1157       O  0.10055436  0.04943926  0.55743199    -0.40100
O1158       O  0.08692817  0.01256333  0.61516211    -0.39300
O1159       O  0.13907660  0.87580640  0.51188845    -0.39300
O1160       O  0.15053111  0.90042250  0.44317001    -0.37000
O1161       O  0.25425020  0.86862131  0.52629479    -0.37900
O1162       O  0.25628704  0.88530373  0.59899773    -0.34100
O1163       O  0.21358685  0.04476363  0.52271977    -0.35500
O1164       O  0.20433568  0.02328627  0.45356238    -0.39800
C1165       C  0.97082196  0.76436008  0.53366810    -0.13500
C1166       C  0.00279275  0.76326913  0.50932139     0.16900
C1167       C  0.01937392  0.79482356  0.48955434     0.03200
C1168       C  0.00394388  0.82557838  0.49392201    -0.12000
C1169       C  0.97252157  0.82668227  0.51892234    -0.03000
C1170       C  0.95587304  0.79523602  0.53910244     0.02400
C1171       C  0.01619208  0.72848756  0.50455200     0.09300
N1172       N  0.05195053  0.79693975  0.46491300     0.65600
H1173       H  0.01740496  0.84912044  0.47836809     0.18500
N1174       N  0.92483919  0.79423540  0.56774937     0.76100
H1175       H  0.95771661  0.74102601  0.55029669     0.10100
C1176       C  0.04998695  0.72121662  0.51573162     0.03800
C1177       C  0.05882071  0.68713835  0.51328930    -0.05000
C1178       C  0.03491002  0.65964300  0.50054671    -0.23300
C1179       C  0.00121683  0.66656251  0.49003926     0.13000
C1180       C  0.99264833  0.70058402  0.49100700    -0.12500
N1181       N  0.07584998  0.74739487  0.53026405     0.64700
H1182       H  0.08453407  0.68195628  0.52214725     0.12500
N1183       N  0.97459862  0.63920122  0.48135679     0.61300
H1184       H  0.96665078  0.70508004  0.48251604     0.08700
O1185       O  0.89574765  0.79000197  0.54933515    -0.40100
O1186       O  0.92649780  0.79776677  0.61166792    -0.39300
O1187       O  0.05223893  0.79285251  0.42110798    -0.39300
O1188       O  0.07720481  0.81504155  0.48211678    -0.37000
O1189       O  0.96586449  0.61652998  0.51301292    -0.37900
O1190       O  0.95471939  0.64226536  0.44782961    -0.34100
O1191       O  0.10305526  0.75375560  0.50482296    -0.35500
O1192       O  0.07708040  0.75441223  0.57333507    -0.39800
C1193       C  0.13090941  0.00511145  0.39225715    -0.13500
C1194       C  0.14682467  0.98121941  0.36556693     0.16900
C1195       C  0.12525059  0.95399670  0.69208576     0.03200
C1196       C  0.08946205  0.94982012  0.70157488    -0.12000
C1197       C  0.07436681  0.97353762  0.38176116    -0.03000
C1198       C  0.09524466  0.00271185  0.39845077     0.02400
C1199       C  0.18342660  0.99146263  0.69521383     0.09300
N1200       N  0.13992673  0.92812997  0.66548678     0.65600
H1201       H  0.07432950  0.92694503  0.68899606     0.18500
N1202       N  0.08104334  0.03175948  0.41831747     0.76100
H1203       H  0.14617633  0.02709307  0.40674312     0.10100
C1204       C  0.20061921  0.02167452  0.34112024     0.03800
C1205       C  0.23655135  0.02900369  0.34082165    -0.05000
C1206       C  0.25710188  0.00426716  0.35576903    -0.23300
C1207       C  0.24162522  0.97087655  0.36893104     0.13000
C1208       C  0.20432066  0.96610666  0.70777338    -0.12500
N1209       N  0.17999274  0.05108293  0.66418502     0.64700
H1210       H  0.24853117  0.05455053  0.33026542     0.12500
N1211       N  0.26187902  0.94416587  0.38181688     0.61300
H1212       H  0.19278648  0.94113922  0.72094738     0.08700
O1213       O  0.07336147  0.05522539  0.39083070    -0.40100
O1214       O  0.08779961  0.03960062  0.46009672    -0.39300
O1215       O  0.14274775  0.93162969  0.62135392    -0.39300
O1216       O  0.14079222  0.89854230  0.68372944    -0.37000
O1217       O  0.25717526  0.93032962  0.42227800    -0.37900
O1218       O  0.27203112  0.92875929  0.68212325    -0.34100
O1219       O  0.18066967  0.07442369  0.35634161    -0.35500
O1220       O  0.17193270  0.05325964  0.62177505    -0.39800
C1221       C  0.94831956  0.76169107  0.38350362    -0.13500
C1222       C  0.97843196  0.75531760  0.35778931     0.16900
C1223       C  0.00101097  0.78490686  0.34181585     0.03200
C1224       C  0.99334854  0.81860742  0.35231973    -0.12000
C1225       C  0.96275990  0.82455993  0.37656664    -0.03000
C1226       C  0.93974888  0.79528943  0.39118418     0.02400
C1227       C  0.98271852  0.71779065  0.34656465     0.09300
N1228       N  0.02835073  0.78557178  0.64336381     0.65600
H1229       H  0.00957258  0.84298224  0.67543230     0.18500
N1230       N  0.90591600  0.79898245  0.40970216     0.76100
H1231       H  0.93010681  0.74016857  0.39611298     0.10100
C1232       C  0.01322143  0.70192114  0.35398296     0.03800
C1233       C  0.01289337  0.66581340  0.35093101    -0.05000
C1234       C  0.98310495  0.64419924  0.34024695    -0.23300
C1235       C  0.95330788  0.65960946  0.33005155     0.13000
C1236       C  0.95336835  0.69579443  0.33296008    -0.12500
N1237       N  0.04470273  0.72110483  0.36668250     0.64700
H1238       H  0.03623702  0.65429677  0.35788518     0.12500
N1239       N  0.92651216  0.64199192  0.63639589     0.61300
H1240       H  0.93161950  0.70952059  0.64866983     0.08700
O1241       O  0.88268556  0.80577014  0.38235908    -0.40100
O1242       O  0.89990994  0.79809526  0.45354927    -0.39300
O1243       O  0.05828788  0.79403742  0.65775912    -0.39300
O1244       O  0.02354882  0.78953724  0.60017769    -0.37000
O1245       O  0.90277877  0.62844211  0.66431201    -0.37900
O1246       O  0.92074475  0.64451749  0.59314468    -0.34100
O1247       O  0.04981830  0.72546988  0.40974581    -0.35500
O1248       O  0.07062425  0.72135215  0.33883766    -0.39800
C1249       C  0.48762592  0.71156489  0.54071239    -0.13500
C1250       C  0.45686444  0.69144637  0.53085544     0.16900
C1251       C  0.42730607  0.70796443  0.52119704     0.03200
C1252       C  0.42990060  0.74403847  0.51927241    -0.12000
C1253       C  0.46170612  0.76366577  0.52440476    -0.03000
C1254       C  0.49121833  0.74708595  0.53379443     0.02400
C1255       C  0.45780681  0.65384920  0.52616485     0.09300
N1256       N  0.39495545  0.68882823  0.51146656     0.65600
H1257       H  0.40732748  0.75683934  0.51230921     0.18500
N1258       N  0.52555496  0.76467709  0.53020544     0.76100
H1259       H  0.51009563  0.69933562  0.54993565     0.10100
C1260       C  0.48519531  0.64074821  0.50082565     0.03800
C1261       C  0.48533974  0.60538396  0.49662776    -0.05000
C1262       C  0.45837822  0.58211735  0.51595571    -0.23300
C1263       C  0.43075310  0.59513925  0.54110142     0.13000
C1264       C  0.43154282  0.63068445  0.54730240    -0.12500
N1265       N  0.51252241  0.66282946  0.47732418     0.64700
H1266       H  0.50668419  0.59625342  0.47699136     0.12500
N1267       N  0.40047433  0.57344293  0.55746747     0.61300
H1268       H  0.41123461  0.64008848  0.56857133     0.08700
O1269       O  0.53849972  0.77201288  0.48962239    -0.40100
O1270       O  0.54605994  0.75991903  0.56238770    -0.39300
O1271       O  0.37209523  0.68359909  0.54408377    -0.39300
O1272       O  0.38615783  0.68580517  0.46930563    -0.37000
O1273       O  0.39967111  0.55954245  0.59787253    -0.37900
O1274       O  0.37225762  0.57690677  0.53861944    -0.34100
O1275       O  0.50698156  0.67773062  0.43911267    -0.35500
O1276       O  0.54320383  0.66196388  0.48957832    -0.39800
C1277       C  0.68620127  0.92665264  0.54650920    -0.13500
C1278       C  0.71028532  0.90240907  0.54836691     0.16900
C1279       C  0.69760773  0.86712762  0.54084005     0.03200
C1280       C  0.66280301  0.85778668  0.53005525    -0.12000
C1281       C  0.63975202  0.88251926  0.52570486    -0.03000
C1282       C  0.65179987  0.91735856  0.53421085     0.02400
C1283       C  0.74778204  0.91428527  0.55862945     0.09300
N1284       N  0.71959024  0.84025322  0.54255044     0.68400
H1285       H  0.65354306  0.83081495  0.52534328     0.18500
N1286       N  0.62943286  0.94380400  0.53050623     0.76100
H1287       H  0.69371778  0.95317586  0.55549870     0.10100
C1288       C  0.76609291  0.94537978  0.53934430     0.03800
C1289       C  0.80126041  0.95419842  0.54801828    -0.05000
C1290       C  0.81977209  0.93305177  0.57553925    -0.23300
C1291       C  0.80167069  0.90211146  0.59492424     0.13000
C1292       C  0.76612730  0.89403187  0.58803423    -0.12500
N1293       N  0.75003686  0.96852110  0.51009655     0.64700
H1294       H  0.81431498  0.97780164  0.53210883     0.12500
N1295       N  0.81931367  0.87695018  0.61836145     0.61300
H1296       H  0.75307775  0.87113668  0.60551180     0.08700
O1297       O  0.62026999  0.95247760  0.49031850    -0.40100
O1298       O  0.62652020  0.96400774  0.56432219    -0.39300
O1299       O  0.71420635  0.81714025  0.57440785    -0.39300
O1300       O  0.73833081  0.83507123  0.50691227    -0.37000
O1301       O  0.81474995  0.87203776  0.66217075    -0.37900
O1302       O  0.83233610  0.85446362  0.59424938    -0.34100
O1303       O  0.75479560  0.96724021  0.46614937    -0.35500
O1304       O  0.74204248  0.99626825  0.52746927    -0.39800
C1305       C  0.47628422  0.70043420  0.65814232    -0.13500
C1306       C  0.49755706  0.67735664  0.32715015     0.16900
C1307       C  0.53239950  0.69127484  0.33400614     0.03200
C1308       C  0.54088158  0.72719409  0.34076816    -0.12000
C1309       C  0.51533861  0.74984495  0.34290152    -0.03000
C1310       C  0.48282218  0.73553308  0.66906634     0.02400
C1311       C  0.48688282  0.63915258  0.31910946     0.09300
N1312       N  0.55947704  0.66938306  0.33514006     0.65600
H1313       H  0.56755901  0.73744731  0.34499204     0.18500
N1314       N  0.45437177  0.75545498  0.67269958     0.76100
H1315       H  0.45034760  0.69069658  0.64928237     0.10100
C1316       C  0.45720775  0.62058583  0.34186425     0.03800
C1317       C  0.44909906  0.58487720  0.33494773    -0.05000
C1318       C  0.46998432  0.56613828  0.30624908    -0.23300
C1319       C  0.50018458  0.58434683  0.28466727     0.13000
C1320       C  0.50718477  0.62039465  0.28922838    -0.12500
N1321       N  0.44006584  0.63788616  0.70365859     0.64700
H1322       H  0.43038802  0.57322006  0.68234169     0.12500
N1323       N  0.52610860  0.56625975  0.26255496     0.61300
H1324       H  0.52966971  0.63351148  0.27053061     0.08700
O1325       O  0.43670504  0.75902072  0.63698794    -0.40100
O1326       O  0.44098773  0.75963870  0.71293446    -0.39300
O1327       O  0.58554938  0.67536637  0.30747636    -0.39300
O1328       O  0.55738121  0.64394374  0.36354932    -0.37000
O1329       O  0.54700705  0.55231295  0.28749367    -0.37900
O1330       O  0.52776952  0.56341214  0.21845004    -0.34100
O1331       O  0.41121205  0.64456849  0.68950970    -0.35500
O1332       O  0.43934451  0.63352648  0.41740791    -0.39800
C1333       C  0.75625610  0.97599591  0.35225902    -0.13500
C1334       C  0.73355588  0.94713131  0.36636456     0.16900
C1335       C  0.74684545  0.91801909  0.38585155     0.03200
C1336       C  0.78213413  0.91812119  0.38992259    -0.12000
C1337       C  0.80509910  0.94672279  0.37499363    -0.03000
C1338       C  0.79165814  0.97636027  0.35766822     0.02400
C1339       C  0.69645972  0.94646282  0.35802875     0.09300
N1340       N  0.72481525  0.88850587  0.40336464     0.65600
H1341       H  0.79141596  0.89540503  0.40511460     0.18500
N1342       N  0.81286506  0.00812670  0.34968181     0.76100
H1343       H  0.74661205  0.99845176  0.33696507     0.10100
C1344       C  0.67659939  0.97260803  0.37336717     0.03800
C1345       C  0.64083171  0.96818108  0.36831092    -0.05000
C1346       C  0.62464563  0.93746722  0.35047517    -0.23300
C1347       C  0.64302021  0.91037477  0.66657245     0.13000
C1348       C  0.68029042  0.91727429  0.33662663    -0.12500
N1349       N  0.69184450  0.00268828  0.39630033     0.64700
H1350       H  0.62539276  0.98794278  0.38036757     0.12500
N1351       N  0.62809347  0.87501552  0.66601780     0.61300
H1352       H  0.69374360  0.89609682  0.65557586     0.08700
O1353       O  0.81191608  0.03101136  0.38045444    -0.40100
O1354       O  0.82240599  0.01692884  0.30801438    -0.39300
O1355       O  0.72654477  0.85952498  0.38474854    -0.39300
O1356       O  0.70976156  0.88986750  0.44304706    -0.37000
O1357       O  0.61433919  0.86143392  0.70359826    -0.37900
O1358       O  0.63877179  0.85531184  0.63533812    -0.34100
O1359       O  0.69737271  0.03091036  0.37343362    -0.35500
O1360       O  0.69140211  0.00306817  0.44068754    -0.39800
C1361       C  0.89415244  0.13601260  0.54369790    -0.13500
C1362       C  0.92223876  0.15993675  0.52780583     0.16900
C1363       C  0.95271209  0.14707719  0.51110704     0.03200
C1364       C  0.95437088  0.11155246  0.51021192    -0.12000
C1365       C  0.92710707  0.08757321  0.52760705    -0.03000
C1366       C  0.89600624  0.09990952  0.54336380     0.02400
C1367       C  0.91925301  0.19795736  0.52644618     0.09300
N1368       N  0.98284229  0.16948146  0.49575000     0.65600
H1369       H  0.97839175  0.10275386  0.49779950     0.18500
N1370       N  0.86573353  0.07656530  0.55617859     0.76100
H1371       H  0.87045316  0.14551726  0.55574849     0.10100
C1372       C  0.89338466  0.21209958  0.50128066     0.03800
C1373       C  0.89406890  0.24817440  0.49646068    -0.05000
C1374       C  0.91979447  0.27092605  0.51689420    -0.23300
C1375       C  0.94420504  0.25669129  0.54447695     0.13000
C1376       C  0.94342225  0.22070672  0.54946968    -0.12500
N1377       N  0.86582257  0.19031687  0.48131851     0.64700
H1378       H  0.87398923  0.25853136  0.47722081     0.12500
N1379       N  0.97087636  0.27831997  0.56623925     0.61300
H1380       H  0.96201116  0.21052741  0.57158652     0.08700
O1381       O  0.85873723  0.04918822  0.53350727    -0.40100
O1382       O  0.84314483  0.08584750  0.58460160    -0.39300
O1383       O  0.00385839  0.18081720  0.52613431    -0.39300
O1384       O  0.99385558  0.16802245  0.45365857    -0.37000
O1385       O  0.00053714  0.28269646  0.54647014    -0.37900
O1386       O  0.96762649  0.28451957  0.60949473    -0.34100
O1387       O  0.83536357  0.19039915  0.49766748    -0.35500
O1388       O  0.87212205  0.16880788  0.45043557    -0.39800
C1389       C  0.68828669  0.35831948  0.54392622    -0.13500
C1390       C  0.68061485  0.38991858  0.52381184     0.16900
C1391       C  0.70917483  0.41280198  0.50498705     0.03200
C1392       C  0.74255037  0.40276221  0.50317458    -0.12000
C1393       C  0.74947018  0.37074220  0.52065047    -0.03000
C1394       C  0.72224447  0.34874353  0.54241544     0.02400
C1395       C  0.64354632  0.39858572  0.52123205     0.09300
N1396       N  0.70541306  0.44630655  0.48622829     0.65600
H1397       H  0.76364103  0.42055607  0.48828037     0.18500
N1398       N  0.72881096  0.31647739  0.56262235     0.76100
H1399       H  0.66810266  0.34101982  0.56142797     0.10100
C1400       C  0.61550743  0.37502943  0.50584166     0.03800
C1401       C  0.58318785  0.38651818  0.49761168    -0.05000
C1402       C  0.57712718  0.42076876  0.50514816    -0.23300
C1403       C  0.60395448  0.44360008  0.52342648     0.13000
C1404       C  0.63615649  0.43221919  0.53198628    -0.12500
N1405       N  0.61833113  0.33906654  0.49967362     0.64700
H1406       H  0.56244953  0.36826407  0.48545691     0.12500
N1407       N  0.59839956  0.47795574  0.53619384     0.61300
H1408       H  0.65529464  0.44988708  0.54836873     0.08700
O1409       O  0.73268401  0.31406032  0.60637853    -0.40100
O1410       O  0.73736390  0.29290049  0.53622046    -0.39300
O1411       O  0.71099406  0.47190678  0.51271086    -0.39300
O1412       O  0.71030178  0.45129302  0.44250632    -0.37000
O1413       O  0.58495986  0.48294716  0.57610800    -0.37900
O1414       O  0.61394812  0.50334959  0.51316251    -0.34100
O1415       O  0.61067115  0.31885491  0.53450649    -0.35500
O1416       O  0.61531201  0.32684934  0.45896492    -0.39800
C1417       C  0.93254866  0.14523282  0.65029795    -0.13500
C1418       C  0.89414948  0.15146390  0.33593787     0.16900
C1419       C  0.87040931  0.12245180  0.34962187     0.03200
C1420       C  0.88109181  0.08921183  0.35078969    -0.12000
C1421       C  0.91481358  0.08304505  0.33818325    -0.03000
C1422       C  0.94144910  0.11112511  0.65021778     0.02400
C1423       C  0.88442517  0.18799379  0.33752062     0.09300
N1424       N  0.83548710  0.12597726  0.36392132     0.65600
H1425       H  0.86267958  0.06783029  0.36183965     0.18500
N1426       N  0.97654600  0.10581138  0.63978758     0.76100
H1427       H  0.95177364  0.16622584  0.63887086     0.10100
C1428       C  0.90447732  0.21481928  0.36086215     0.03800
C1429       C  0.89341131  0.24786893  0.36413142    -0.05000
C1430       C  0.87026869  0.25668021  0.67625643    -0.23300
C1431       C  0.85326629  0.23209779  0.64625426     0.13000
C1432       C  0.85513293  0.19669458  0.31444956    -0.12500
N1433       N  0.93652439  0.20932417  0.38094799     0.64700
H1434       H  0.90912318  0.26775847  0.38240005     0.12500
N1435       N  0.82588763  0.24053512  0.61776082     0.61300
H1436       H  0.84967571  0.18031524  0.62063590     0.08700
O1437       O  0.99628545  0.10188889  0.67320026    -0.40100
O1438       O  0.98945571  0.11206904  0.59887929    -0.39300
O1439       O  0.82610089  0.12029504  0.40651824    -0.39300
O1440       O  0.81274758  0.12363926  0.33328164    -0.37000
O1441       O  0.83253805  0.24862435  0.57499292    -0.37900
O1442       O  0.79517882  0.23012727  0.63071595    -0.34100
O1443       O  0.96396280  0.22760720  0.36730223    -0.35500
O1444       O  0.93777817  0.18541187  0.41093845    -0.39800
C1445       C  0.63085519  0.39393670  0.33047279    -0.13500
C1446       C  0.65150584  0.42184374  0.34997640     0.16900
C1447       C  0.64063336  0.45267287  0.70296741     0.03200
C1448       C  0.60473522  0.44983692  0.71051198    -0.12000
C1449       C  0.58290921  0.42243283  0.69240917    -0.03000
C1450       C  0.59459491  0.39204277  0.33264221     0.02400
C1451       C  0.69000369  0.42278216  0.34756554     0.09300
N1452       N  0.66061628  0.48322735  0.71846850     0.65600
H1453       H  0.59350782  0.47102320  0.72710411     0.18500
N1454       N  0.57489514  0.36600287  0.30684487     0.76100
H1455       H  0.64300929  0.37439196  0.31147158     0.10100
C1456       C  0.70611854  0.39543809  0.36686365     0.03800
C1457       C  0.74215666  0.39737334  0.36713096    -0.05000
C1458       C  0.76739428  0.42787702  0.67510568    -0.23300
C1459       C  0.75222087  0.45444345  0.65202575     0.13000
C1460       C  0.71596249  0.45360518  0.65226390    -0.12500
N1461       N  0.68608064  0.36656850  0.38936054     0.64700
H1462       H  0.75394077  0.37616795  0.38239967     0.12500
N1463       N  0.77309287  0.48237290  0.62831431     0.61300
H1464       H  0.70475932  0.47410459  0.63439089     0.08700
O1465       O  0.57213941  0.33496957  0.32114267    -0.40100
O1466       O  0.56611960  0.37283948  0.26576545    -0.39300
O1467       O  0.66974216  0.50729932  0.68890556    -0.39300
O1468       O  0.65907203  0.49052315  0.76151848    -0.37000
O1469       O  0.78283605  0.47887998  0.58604508    -0.37900
O1470       O  0.77401669  0.51234869  0.64475943    -0.34100
O1471       O  0.68453113  0.33711368  0.37121589    -0.35500
O1472       O  0.66683753  0.37136985  0.42446259    -0.39800
C1473       C  0.87370879  0.38210893  0.95963698     0.30900
C1474       C  0.87489556  0.38184822  0.73066868     0.30900
C1475       C  0.90891263  0.39207373  0.98397638    -0.05300
C1476       C  0.85002640  0.40591696  0.98675344    -0.06100
C1477       C  0.86225025  0.34770349  0.98745032    -0.06000
C1478       C  0.90919600  0.39396245  0.70109863    -0.05300
C1479       C  0.85106848  0.40508329  0.70358807    -0.06100
C1480       C  0.86419796  0.34659100  0.70508548    -0.06000
C1481       C  0.93084544  0.42396106  0.70608731    -0.31400
N1482       N  0.95206942  0.43176916  0.66818252     0.15200
C1483       C  0.93860754  0.41246510  0.96670222    -0.31400
H1484       H  0.94807047  0.41508406  0.93054598     0.17100
C1485       C  0.82104557  0.41920837  0.71598960    -0.30300
N1486       N  0.80251088  0.42839609  0.01274810     0.13900
C1487       C  0.82091511  0.42050081  0.97377223    -0.30300
C1488       C  0.86244976  0.31182358  0.71808734    -0.30600
N1489       N  0.85951124  0.29265673  0.01210449     0.14400
H1490       H  0.86363225  0.30171895  0.75338881     0.17000
C1491       C  0.85882723  0.31369399  0.97383846    -0.30600
H1492       H  0.85934427  0.30496423  0.93802992     0.17000
H1493       H  0.81156921  0.42162856  0.93853777     0.17000
H1494       H  0.92290454  0.44450811  0.72678314     0.17100
H1495       H  0.81015493  0.42035860  0.75126714     0.17000
C1496       C  0.87626341  0.38169622  0.79383535     0.30900
C1497       C  0.87410636  0.38262584  0.89844824     0.30900
C1498       C  0.88861939  0.41644421  0.82023900    -0.05300
C1499       C  0.84119738  0.37087195  0.82206567    -0.06100
C1500       C  0.89908041  0.35796073  0.82145267    -0.06000
C1501       C  0.88445790  0.41788415  0.87118453    -0.05300
C1502       C  0.84034313  0.37073678  0.87264279    -0.06100
C1503       C  0.89867078  0.35934845  0.87223535    -0.06000
C1504       C  0.90507329  0.44725886  0.88576972    -0.31400
N1505       N  0.92636773  0.45937915  0.84936071     0.15200
C1506       C  0.91894785  0.43842461  0.81281450    -0.31400
H1507       H  0.93962377  0.43196745  0.79028035     0.17100
C1508       C  0.80606520  0.36422483  0.88727753    -0.30300
N1509       N  0.78607691  0.36164016  0.84906532     0.13900
C1510       C  0.80715227  0.36451247  0.80968024    -0.30300
C1511       C  0.91375954  0.33116921  0.88770253    -0.30600
N1512       N  0.92076612  0.31127527  0.85073599     0.14400
H1513       H  0.91578695  0.32344558  0.92396600     0.17000
C1514       C  0.91338118  0.32798760  0.81051796    -0.30600
H1515       H  0.91593105  0.31749623  0.77587771     0.17000
H1516       H  0.79796002  0.36434225  0.77428904     0.17000
H1517       H  0.90712589  0.45652658  0.92128430     0.17100
H1518       H  0.79603822  0.36453747  0.92316504     0.17000
C1519       C  0.51542032  0.87426863  0.73725957     0.30900
C1520       C  0.51418129  0.87511552  0.96618197     0.30900
C1521       C  0.48038475  0.87707720  0.71257236    -0.05300
C1522       C  0.53771939  0.90362108  0.70842737    -0.06100
C1523       C  0.52634629  0.84183297  0.70954228    -0.06000
C1524       C  0.47989235  0.87697605  0.66161554    -0.05300
C1525       C  0.53710194  0.90382589  0.65756562    -0.06100
C1526       C  0.52623691  0.84302846  0.65866222    -0.06000
C1527       C  0.45055785  0.89116301  0.98280115    -0.31400
N1528       N  0.43362197  0.90021400  0.68913535     0.15200
C1529       C  0.45121949  0.89141672  0.72726534    -0.31400
H1530       H  0.44555600  0.89837958  0.76306548     0.17100
C1531       C  0.56681183  0.92307711  0.97605207    -0.30300
N1532       N  0.58646052  0.93196190  0.67891398     0.13900
C1533       C  0.56833930  0.92227306  0.71917766    -0.30300
C1534       C  0.52514297  0.80979266  0.97777170    -0.30600
N1535       N  0.52464024  0.78763640  0.68080065     0.14400
H1536       H  0.52281511  0.80192548  0.94210112     0.17000
C1537       C  0.52492138  0.80655345  0.72075403    -0.30600
H1538       H  0.52151525  0.79506057  0.75537600     0.17000
H1539       H  0.57864493  0.92528558  0.75373926     0.17000
H1540       H  0.44467044  0.89781947  0.94722562     0.17100
H1541       H  0.57638776  0.92567983  0.94008749     0.17000
C1542       C  0.51679611  0.87613456  0.79935422     0.30900
C1543       C  0.51478711  0.87594988  0.90409313     0.30900
C1544       C  0.51199839  0.91053525  0.82559629    -0.05300
C1545       C  0.48807795  0.85234162  0.82715978    -0.06100
C1546       C  0.54948388  0.86671902  0.82630751    -0.06000
C1547       C  0.51138143  0.91042318  0.87661233    -0.05300
C1548       C  0.48707825  0.85219392  0.87816926    -0.06100
C1549       C  0.54755803  0.86583929  0.87736464    -0.06000
C1550       C  0.49592677  0.93886257  0.89001741    -0.31400
N1551       N  0.48648246  0.95579321  0.85120394     0.15200
C1552       C  0.49672552  0.93915765  0.81222704    -0.31400
H1553       H  0.49014907  0.94494680  0.77662700     0.17100
C1554       C  0.47144757  0.82022604  0.89195427    -0.30300
N1555       N  0.46445272  0.80105672  0.85360253     0.13900
C1556       C  0.47250913  0.82069155  0.81454393    -0.30300
C1557       C  0.58072703  0.86930018  0.89224759    -0.30600
N1558       N  0.60317686  0.87456668  0.85509894     0.14400
H1559       H  0.58776792  0.87133283  0.92824458     0.17000
C1560       C  0.58485372  0.87289990  0.81520599    -0.30600
H1561       H  0.59650489  0.87827821  0.78081972     0.17000
H1562       H  0.47139162  0.81085123  0.77935274     0.17000
H1563       H  0.48851683  0.94421368  0.92584604     0.17100
H1564       H  0.46944409  0.81008187  0.92745247     0.17000
O1565       O  0.02424709  0.00489874  0.04377985    -0.80000
O1566       O  0.86324262  0.96621713  0.68106220    -0.64700
O1567       O  0.95649537  0.98633967  0.71421532    -1.11300
C1568       C  0.95209129  0.86268442  0.71963933     1.06900
O1569       O  0.84903214  0.92238650  0.73279942    -0.77900
O1570       O  0.90430297  0.92998716  0.78253737    -0.65500
Ni1571     Ni  0.98645968  0.01889840  0.01150013     1.34900
C1572       C  0.93573349  0.94126744  0.78562860     0.85600
O1573       O  0.90504918  0.02469338  0.69297351    -0.78400
O1574       O  0.95045917  0.03816600  0.97940755    -0.88700
C1575       C  0.84090656  0.94611038  0.70482521     0.85200
O1576       O  0.98499087  0.97804736  0.97884760    -0.66900
O1577       O  0.92591218  0.86748102  0.74659660    -0.86200
C1578       C  0.95784208  0.96025655  0.96638148     0.86000
C1579       C  0.92433756  0.04642901  0.66735731     1.07600
H1580       H  0.90550676  0.92030700  0.00522182     0.39400
O1581       O  0.91569731  0.92834451  0.69943601    -1.08900
O1582       O  0.95928423  0.92616270  0.76872366    -0.65500
Ni1583     Ni  0.96568349  0.93678280  0.70641851     1.26300
O1584       O  0.92830773  0.97197555  0.96910054    -0.65700
O1585       O  0.97111907  0.88817194  0.69968681    -0.78000
C1586       C  0.03498449  0.97570067  0.71637061     0.85400
O1587       O  0.01547693  0.94681970  0.71445708    -0.65200
Ni1588     Ni  0.88876332  0.89722520  0.73986092     1.27400
Ni1589     Ni  0.90988033  0.97626432  0.69753278     1.26100
H1590       H  0.95497226  0.00220719  0.73898163     0.40000
O1591       O  0.03755218  0.00422157  0.84896063    -0.80000
O1592       O  0.87298487  0.97072622  0.89602657    -0.64700
O1593       O  0.97361555  0.98835071  0.88466695    -1.11300
C1594       C  0.96069629  0.86352937  0.85978770     1.06900
O1595       O  0.87429136  0.92408498  0.94126216    -0.77900
O1596       O  0.94025951  0.90058240  0.95762830    -0.65500
Ni1597     Ni  0.99365561  0.02210567  0.84115807     1.34900
C1598       C  0.96325392  0.92588700  0.95227110     0.85600
O1599       O  0.91935793  0.03093079  0.89799731    -0.78400
O1600       O  0.95268374  0.04479630  0.83394262    -0.88700
C1601       C  0.85731340  0.94340953  0.91652515     0.85200
O1602       O  0.97663130  0.98505315  0.80508133    -0.66900
O1603       O  0.93281821  0.86275708  0.88450988    -0.86200
C1604       C  0.94481247  0.97280034  0.80647848     0.86000
C1605       C  0.93272344  0.05337994  0.86707353     1.07600
H1606       H  0.91104367  0.92703814  0.85736540     0.39400
O1607       O  0.92733525  0.93311494  0.88030867    -1.08900
O1608       O  0.98753452  0.92372888  0.92351749    -0.65500
Ni1609     Ni  0.97687716  0.93957736  0.86394425     1.26300
O1610       O  0.92148573  0.98702493  0.82746024    -0.65700
O1611       O  0.97833340  0.89180462  0.84521522    -0.78000
C1612       C  0.04709090  0.97398650  0.85128546     0.85400
O1613       O  0.02579672  0.94669775  0.85081183    -0.65200
Ni1614     Ni  0.90524971  0.89434510  0.91371911     1.27400
Ni1615     Ni  0.92289638  0.98151103  0.89220551     1.26100
H1616       H  0.98751771  0.99743394  0.90924329     0.40000
C1617       C  0.03135984  0.53757106  0.61796553     0.30900
C1618       C  0.03007831  0.53656711  0.72262519     0.30900
C1619       C  0.01921583  0.50241308  0.64490455    -0.05300
C1620       C  0.06647677  0.54769682  0.64302895    -0.06100
C1621       C  0.00886143  0.56250084  0.64530107    -0.06000
C1622       C  0.01552765  0.50311024  0.69571591    -0.05300
C1623       C  0.06551905  0.54366584  0.69383597    -0.06100
C1624       C  0.00905222  0.56259158  0.69591842    -0.06000
C1625       C  0.98585280  0.48068282  0.70358637    -0.31400
N1626       N  0.97883892  0.45981462  0.66680564     0.15200
C1627       C  0.99958419  0.47256813  0.63018465    -0.31400
H1628       H  0.99768139  0.46367228  0.92841303     0.17100
C1629       C  0.09460714  0.52762908  0.70079408    -0.30300
N1630       N  0.11728148  0.53105351  0.66373401     0.13900
C1631       C  0.10033916  0.54394930  0.62781007    -0.30300
C1632       C  0.99360007  0.59138838  0.70919102    -0.30600
N1633       N  0.98566481  0.60972219  0.67063383     0.14400
H1634       H  0.99043893  0.59980326  0.74471679     0.17000
C1635       C  0.99334607  0.59146253  0.63202594    -0.30600
H1636       H  0.99139400  0.60195577  0.93061276     0.17000
H1637       H  0.11239882  0.54806515  0.93206951     0.17000
H1638       H  0.96546393  0.48605035  0.72735970     0.17100
H1639       H  0.09369123  0.50616701  0.72442689     0.17000
C1640       C  0.03232572  0.53713800  0.78652047     0.30900
C1641       C  0.03098845  0.53823117  0.89130025     0.30900
C1642       C  0.99810307  0.52361492  0.81597605    -0.05300
C1643       C  0.05807194  0.51626975  0.81441233    -0.06100
C1644       C  0.04141758  0.57246461  0.81185609    -0.06000
C1645       C  0.99608528  0.52746766  0.86658848    -0.05300
C1646       C  0.05441003  0.51358372  0.86534931    -0.06100
C1647       C  0.04197542  0.57278232  0.86258496    -0.06000
C1648       C  0.96612861  0.50718449  0.88335058    -0.31400
N1649       N  0.95446302  0.48623590  0.84847453     0.15200
C1650       C  0.97640444  0.49348880  0.81097406    -0.31400
H1651       H  0.98381310  0.47291076  0.78980032     0.17100
C1652       C  0.08305475  0.49963621  0.88146070    -0.30300
N1653       N  0.10696661  0.50069929  0.84598881     0.13900
C1654       C  0.09344961  0.51481676  0.80829048    -0.30300
C1655       C  0.04581146  0.60722409  0.87480984    -0.30600
N1656       N  0.04530403  0.62741134  0.83559151     0.14400
H1657       H  0.04633426  0.61709735  0.91008032     0.17000
C1658       C  0.04450202  0.60681571  0.79739751    -0.30600
H1659       H  0.04448905  0.61643244  0.76164455     0.17000
H1660       H  0.11020169  0.53032027  0.78355092     0.17000
H1661       H  0.95583973  0.50534305  0.91916864     0.17100
H1662       H  0.08783539  0.49319438  0.91752374     0.17000
C1663       C  0.37996271  0.00517990  0.96977201     0.30900
C1664       C  0.37899698  0.00349118  0.74159843     0.30900
C1665       C  0.38521246  0.97103533  0.99704238    -0.05300
C1666       C  0.40716971  0.03040752  0.99540027    -0.06100
C1667       C  0.34698677  0.01389942  0.99752596    -0.06000
C1668       C  0.38383550  0.96953195  0.71506830    -0.05300
C1669       C  0.40736943  0.02819314  0.71384409    -0.06100
C1670       C  0.34662252  0.01325946  0.71537897    -0.06000
C1671       C  0.39869481  0.94073403  0.72855919    -0.31400
N1672       N  0.40878783  0.92408947  0.68964077     0.15200
C1673       C  0.40019578  0.94224225  0.98361593    -0.31400
H1674       H  0.40694079  0.93635853  0.94775139     0.17100
C1675       C  0.42318139  0.05980857  0.72706858    -0.30300
N1676       N  0.43127830  0.08020569  0.68856563     0.13900
C1677       C  0.42161644  0.06313688  0.98165848    -0.30300
C1678       C  0.31244968  0.01358473  0.72926639    -0.30600
N1679       N  0.29301445  0.01385059  0.69061585     0.14400
H1680       H  0.30194854  0.01152760  0.76491468     0.17000
C1681       C  0.31364102  0.01580834  0.98442195    -0.30600
H1682       H  0.30458392  0.01549405  0.94890288     0.17000
H1683       H  0.42358666  0.07328615  0.94614417     0.17000
H1684       H  0.40495349  0.93465319  0.76419523     0.17100
H1685       H  0.42491882  0.06898454  0.76264308     0.17000
C1686       C  0.37898758  0.00350750  0.80346486     0.30900
C1687       C  0.37965702  0.00496265  0.90785884     0.30900
C1688       C  0.41347314  0.00018834  0.82851940    -0.05300
C1689       C  0.36862576  0.03597541  0.82936323    -0.06100
C1690       C  0.35520105  0.97520715  0.83264878    -0.06000
C1691       C  0.41382129  0.00077998  0.87919115    -0.05300
C1692       C  0.36932981  0.03713971  0.87994920    -0.06100
C1693       C  0.35525828  0.97591815  0.88371696    -0.06000
C1694       C  0.44389692  0.98819268  0.89140109    -0.31400
N1695       N  0.46112020  0.97910800  0.85182245     0.15200
C1696       C  0.44323738  0.98718559  0.81371451    -0.31400
H1697       H  0.44938412  0.98078209  0.77784188     0.17100
C1698       C  0.36947858  0.07168714  0.89060587    -0.30300
N1699       N  0.36878464  0.09087567  0.85036040     0.13900
C1700       C  0.36731195  0.06920661  0.81359544    -0.30300
C1701       C  0.32282013  0.96072552  0.89874489    -0.30600
N1702       N  0.30318453  0.95228420  0.86131460     0.14400
H1703       H  0.31251548  0.96021824  0.93443494     0.17000
C1704       C  0.32308971  0.95974633  0.82168688    -0.30600
H1705       H  0.31325577  0.95886271  0.78680267     0.17000
H1706       H  0.36904088  0.07733573  0.77743414     0.17000
H1707       H  0.45074677  0.98285666  0.92701841     0.17100
H1708       H  0.37208105  0.08233003  0.92497466     0.17000
O1709       O  0.40781606  0.34920738  0.70676365    -0.80000
O1710       O  0.43850091  0.51312220  0.65445711    -0.64700
O1711       O  0.42275181  0.41191553  0.66568569    -1.11300
C1712       C  0.54449816  0.42861376  0.01817970     1.06900
O1713       O  0.48281400  0.51268795  0.93865788    -0.77900
O1714       O  0.50517769  0.44516630  0.92311269    -0.65500
Ni1715     Ni  0.38777309  0.39237464  0.70862598     1.34900
C1716       C  0.47870689  0.42376364  0.92918270     0.85600
O1717       O  0.38103445  0.46635980  0.64984906    -0.78400
O1718       O  0.36259797  0.43265185  0.71167540    -0.88700
C1719       C  0.46485428  0.52892468  0.63217753     0.85200
O1720       O  0.42286012  0.41066250  0.74523465    -0.66900
O1721       O  0.54465132  0.45554889  0.99243605    -0.86200
C1722       C  0.43613508  0.44196763  0.74258612     0.86000
C1723       C  0.35741011  0.45483965  0.67984159     1.07600
H1724       H  0.48321866  0.47649090  0.69111583     0.39400
O1725       O  0.47717732  0.45988731  0.66833027    -1.08900
O1726       O  0.48032243  0.39912826  0.95716183    -0.65500
Ni1727     Ni  0.47159349  0.41013240  0.68342867     1.26300
O1728       O  0.42233998  0.46524241  0.72185545    -0.65700
O1729       O  0.52041635  0.40977023  0.69773384    -0.78000
C1730       C  0.43824430  0.34007240  0.70220363     0.85400
O1731       O  0.46525749  0.36144035  0.69601136    -0.65200
Ni1732     Ni  0.51268022  0.48201987  0.96474534     1.27400
Ni1733     Ni  0.42916685  0.46301672  0.65721326     1.26100
H1734       H  0.41295058  0.39788251  0.97586355     0.40000
O1735       O  0.39683671  0.36475436  0.84266798    -0.80000
O1736       O  0.44487670  0.52465041  0.86440755    -0.64700
O1737       O  0.41968985  0.43162756  0.83301946    -1.11300
C1738       C  0.54246647  0.42825005  0.82908719     1.06900
O1739       O  0.49034790  0.53602627  0.81431776    -0.77900
O1740       O  0.48107300  0.48040208  0.76552581    -0.65500
Ni1741     Ni  0.38535100  0.40539233  0.87077184     1.34900
C1742       C  0.46814180  0.44948807  0.76196854     0.85600
O1743       O  0.38515878  0.48740351  0.85010947    -0.78400
O1744       O  0.36872928  0.44481881  0.89896884    -0.88700
C1745       C  0.46623276  0.54567668  0.84098442     0.85200
O1746       O  0.42510700  0.40500015  0.90388420    -0.66900
O1747       O  0.54075066  0.45567540  0.80386611    -0.86200
C1748       C  0.44451789  0.43125684  0.91569747     0.86000
C1749       C  0.36097276  0.46920175  0.87272256     1.07600
H1750       H  0.48775657  0.47992761  0.87579029     0.39400
O1751       O  0.47945671  0.46932319  0.84828183    -1.08900
O1752       O  0.48121967  0.42496686  0.77920158    -0.65500
Ni1753     Ni  0.46801312  0.41917049  0.84132034     1.26300
O1754       O  0.43492456  0.46160665  0.91143671    -0.65700
O1755       O  0.51567496  0.41061353  0.84836378    -0.78000
C1756       C  0.42451978  0.35150672  0.83359656     0.85400
O1757       O  0.45463201  0.36920462  0.83271222    -0.65200
Ni1758     Ni  0.51312654  0.49454300  0.80905305     1.27400
Ni1759     Ni  0.43257055  0.47845111  0.84849255     1.26100
H1760       H  0.40390321  0.43380668  0.80871851     0.40000
C1761       C  0.41154016  0.18204815  0.85722462    -0.13500
C1762       C  0.38987737  0.20115344  0.83100141     0.16900
C1763       C  0.36062325  0.18222304  0.81067169     0.03200
C1764       C  0.35295156  0.14647869  0.82074500    -0.12000
C1765       C  0.37542029  0.12805307  0.84567612    -0.03000
C1766       C  0.40587956  0.14606267  0.86178391     0.02400
C1767       C  0.39915709  0.24007098  0.82617465     0.09300
N1768       N  0.33972932  0.19765958  0.77743248     0.65600
H1769       H  0.33021971  0.13230757  0.80664192     0.18500
N1770       N  0.43351529  0.12804541  0.87691030     0.76100
H1771       H  0.43407390  0.19470760  0.87354050     0.10100
C1772       C  0.37411489  0.26364569  0.82460240     0.03800
C1773       C  0.38462774  0.29893845  0.81859607    -0.05000
C1774       C  0.41885645  0.31329362  0.82602206    -0.23300
C1775       C  0.44352246  0.29018194  0.83394277     0.13000
C1776       C  0.43418417  0.25447116  0.82790832    -0.12500
N1777       N  0.33820495  0.25340432  0.83526484     0.64700
H1778       H  0.36450044  0.31558485  0.81429502     0.12500
N1779       N  0.47588931  0.30135247  0.85469481     0.61300
H1780       H  0.45441861  0.23778521  0.82909001     0.08700
O1781       O  0.44678552  0.13550043  0.91575335    -0.40100
O1782       O  0.45096971  0.11379325  0.84624673    -0.39300
O1783       O  0.30840286  0.18603643  0.77367001    -0.39300
O1784       O  0.35314021  0.22065013  0.74858205    -0.37000
O1785       O  0.47619053  0.32009859  0.89056271    -0.37900
O1786       O  0.50189064  0.28579249  0.84544636    -0.34100
O1787       O  0.32883500  0.24406400  0.87687041    -0.35500
O1788       O  0.31597402  0.26284559  0.80808371    -0.39800
C1789       C  0.40993984  0.17114895  0.69683824    -0.13500
C1790       C  0.44235758  0.19082115  0.69246710     0.16900
C1791       C  0.46563723  0.17573607  0.01260003     0.03200
C1792       C  0.46314066  0.13943831  0.01634334    -0.12000
C1793       C  0.43497614  0.11728499  0.69023978    -0.03000
C1794       C  0.40577682  0.13540515  0.69287641     0.02400
C1795       C  0.44347511  0.22977360  0.69188631     0.09300
N1796       N  0.49825532  0.19406441  0.99829055     0.65600
H1797       H  0.48622209  0.12655150  0.01265264     0.18500
N1798       N  0.37165483  0.11880994  0.68673748     0.76100
H1799       H  0.38689294  0.18339745  0.70194426     0.10100
C1800       C  0.40856746  0.24893179  0.00355246     0.03800
C1801       C  0.41549410  0.28191381  0.67847330    -0.05000
C1802       C  0.44153095  0.30246664  0.70087154    -0.23300
C1803       C  0.47016127  0.28673969  0.71710391     0.13000
C1804       C  0.46966741  0.25051592  0.71449509    -0.12500
N1805       N  0.38317436  0.23246551  0.97372435     0.64700
H1806       H  0.38555167  0.29595615  0.00042148     0.12500
N1807       N  0.49975654  0.30631247  0.73655301     0.61300
H1808       H  0.48953447  0.23867036  0.73189426     0.08700
O1809       O  0.35895745  0.12189247  0.64695552    -0.40100
O1810       O  0.35102360  0.11504309  0.72193693    -0.39300
O1811       O  0.52420059  0.19181208  0.02297876    -0.39300
O1812       O  0.50258596  0.20630922  0.95688016    -0.37000
O1813       O  0.49655093  0.33227302  0.76159968    -0.37900
O1814       O  0.52893924  0.29536310  0.73291412    -0.34100
O1815       O  0.35157308  0.23109477  0.98552929    -0.35500
O1816       O  0.39156472  0.22848018  0.93120175    -0.39800
C1817       C  0.18929046  0.45932742  0.85189421    -0.13500
C1818       C  0.21494687  0.48784938  0.84570193     0.16900
C1819       C  0.20357235  0.52070358  0.83731396     0.03200
C1820       C  0.16816473  0.52447583  0.83912459    -0.12000
C1821       C  0.14311533  0.49640292  0.84928896    -0.03000
C1822       C  0.15400772  0.46355522  0.85590362     0.02400
C1823       C  0.25252843  0.48299715  0.85245864     0.09300
N1824       N  0.22703106  0.55044946  0.82452557     0.65600
H1825       H  0.16006862  0.54968670  0.83213577     0.18500
N1826       N  0.12955813  0.43423503  0.86730184     0.76100
H1827       H  0.19668913  0.43350987  0.85560509     0.10100
C1828       C  0.26258385  0.46224007  0.89002968     0.03800
C1829       C  0.29765167  0.45815986  0.89567282    -0.05000
C1830       C  0.32390664  0.47485164  0.86568990    -0.23300
C1831       C  0.31390665  0.49480279  0.82738515     0.13000
C1832       C  0.27877556  0.49831029  0.82102574    -0.12500
N1833       N  0.23755592  0.44474506  0.92284737     0.64700
H1834       H  0.30443880  0.44193581  0.92423061     0.12500
N1835       N  0.33891144  0.51066618  0.79335421     0.61300
H1836       H  0.27209921  0.51206911  0.79006686     0.08700
O1837       O  0.12651934  0.42283473  0.90920103    -0.40100
O1838       O  0.11675068  0.41576701  0.83480093    -0.39300
O1839       O  0.23281489  0.55715853  0.78128214    -0.39300
O1840       O  0.23083715  0.57502592  0.85290320    -0.37000
O1841       O  0.35711610  0.49240180  0.76897105    -0.37900
O1842       O  0.34351874  0.54309566  0.78842502    -0.34100
O1843       O  0.23648635  0.41253217  0.92948410    -0.35500
O1844       O  0.21508503  0.46086263  0.94295276    -0.39800
C1845       C  0.26098130  0.46104279  0.68942944    -0.13500
C1846       C  0.25861988  0.49680868  0.68300864     0.16900
C1847       C  0.29043642  0.51892860  0.67961321     0.03200
C1848       C  0.32203789  0.50466817  0.67511232    -0.12000
C1849       C  0.32352962  0.46897798  0.68007425    -0.03000
C1850       C  0.29262039  0.44739598  0.68958385     0.02400
C1851       C  0.22279231  0.50865917  0.67869999     0.09300
N1852       N  0.29195248  0.55544256  0.68598566     0.65600
H1853       H  0.34588950  0.52186924  0.67148253     0.18500
N1854       N  0.29277923  0.41121959  0.69892545     0.76100
H1855       H  0.23632167  0.44966451  0.02827781     0.10100
C1856       C  0.21473162  0.53481408  0.64649417     0.03800
C1857       C  0.18001362  0.54161992  0.64159820    -0.05000
C1858       C  0.15225935  0.52100678  0.66440075    -0.23300
C1859       C  0.16028915  0.49327040  0.69320471     0.13000
C1860       C  0.19463455  0.48951172  0.70310687    -0.12500
N1861       N  0.24279720  0.56240186  0.95719214     0.64700
H1862       H  0.17842556  0.57815692  0.96660830     0.12500
N1863       N  0.13444848  0.46574607  0.70740483     0.61300
H1864       H  0.19894626  0.46940218  0.72814189     0.08700
O1865       O  0.28646951  0.40314998  0.07030172    -0.40100
O1866       O  0.30330958  0.39190727  0.66763087    -0.39300
O1867       O  0.29011998  0.56633261  0.72741208    -0.39300
O1868       O  0.30685566  0.57561366  0.65454862    -0.37000
O1869       O  0.12884968  0.45852925  0.75056625    -0.37900
O1870       O  0.12401968  0.44373697  0.67744582    -0.34100
O1871       O  0.24400802  0.59444280  0.94879918    -0.35500
O1872       O  0.26087712  0.54459769  0.93175850    -0.39800
C1873       C  0.14277274  0.99043883  0.87885188    -0.13500
C1874       C  0.15628140  0.96205135  0.85820285     0.16900
C1875       C  0.13268257  0.93615032  0.83875543     0.03200
C1876       C  0.09757233  0.94076188  0.83642296    -0.12000
C1877       C  0.08459371  0.97016269  0.85476333    -0.03000
C1878       C  0.10748700  0.99440454  0.87815711     0.02400
C1879       C  0.19445842  0.95947354  0.85985560     0.09300
N1880       N  0.14337573  0.90429717  0.82297525     0.65600
H1881       H  0.08029442  0.92098672  0.82018866     0.18500
N1882       N  0.09496058  0.02118640  0.90545279     0.76100
H1883       H  0.15951172  0.00884973  0.89791883     0.10100
C1884       C  0.21906274  0.98819589  0.84779723     0.03800
C1885       C  0.25439839  0.98532820  0.84993262    -0.05000
C1886       C  0.26647916  0.95406585  0.86234839    -0.23300
C1887       C  0.24246713  0.92552144  0.87503267     0.13000
C1888       C  0.20685599  0.92857378  0.87478202    -0.12500
N1889       N  0.20884265  0.02026810  0.83160225     0.64700
H1890       H  0.27278259  0.00761789  0.84088093     0.12500
N1891       N  0.25383581  0.89290888  0.88600021     0.61300
H1892       H  0.18898148  0.90657542  0.88634313     0.08700
O1893       O  0.10152600  0.05222395  0.89158878    -0.40100
O1894       O  0.08542589  0.01479468  0.94785913    -0.39300
O1895       O  0.13411276  0.87690450  0.84658720    -0.39300
O1896       O  0.15547837  0.90229290  0.78158623    -0.37000
O1897       O  0.25565769  0.87107863  0.85394081    -0.37900
O1898       O  0.25555057  0.88353419  0.92843702    -0.34100
O1899       O  0.21245375  0.04616240  0.85784996    -0.35500
O1900       O  0.20534997  0.02495304  0.78816004    -0.39800
C1901       C  0.97209166  0.76714782  0.86519330    -0.13500
C1902       C  0.00428137  0.76611038  0.84157267     0.16900
C1903       C  0.02100584  0.79761352  0.82182642     0.03200
C1904       C  0.00545799  0.82840064  0.82584501    -0.12000
C1905       C  0.97385236  0.82943037  0.85057136    -0.03000
C1906       C  0.95725954  0.79797100  0.87076008     0.02400
C1907       C  0.01772343  0.73132705  0.83798999     0.09300
N1908       N  0.05367965  0.79951890  0.79738639     0.65600
H1909       H  0.01891277  0.85197169  0.81036607     0.18500
N1910       N  0.92668587  0.79695670  0.90030730     0.76100
H1911       H  0.95896896  0.74386039  0.88193311     0.10100
C1912       C  0.05121439  0.72401155  0.85065564     0.03800
C1913       C  0.05999009  0.68984914  0.84879766    -0.05000
C1914       C  0.03611791  0.66235668  0.83574429    -0.23300
C1915       C  0.00261627  0.66934608  0.82450772     0.13000
C1916       C  0.99427206  0.70339551  0.82434016    -0.12500
N1917       N  0.07664261  0.75016557  0.86645084     0.64700
H1918       H  0.08552223  0.68460849  0.85843657     0.12500
N1919       N  0.97578796  0.64197469  0.81693293     0.61300
H1920       H  0.96844650  0.70789474  0.81498738     0.08700
O1921       O  0.89728250  0.79233320  0.88283745    -0.40100
O1922       O  0.92908746  0.80072042  0.94411158    -0.39300
O1923       O  0.05422927  0.79444301  0.75377615    -0.39300
O1924       O  0.07889923  0.81785103  0.81429860    -0.37000
O1925       O  0.96581180  0.62122545  0.85045118    -0.37900
O1926       O  0.95645883  0.64410288  0.78256474    -0.34100
O1927       O  0.10403317  0.75728951  0.84161697    -0.35500
O1928       O  0.07752095  0.75610751  0.90986243    -0.39800
C1929       C  0.12919475  0.00934436  0.73009912    -0.13500
C1930       C  0.14542006  0.98472798  0.70510170     0.16900
C1931       C  0.12474316  0.95421885  0.02230244     0.03200
C1932       C  0.08894898  0.95013206  0.03208676    -0.12000
C1933       C  0.07280352  0.97651993  0.72138164    -0.03000
C1934       C  0.09338510  0.00663037  0.73619915     0.02400
C1935       C  0.18325754  0.99104778  0.02797184     0.09300
N1936       N  0.13877255  0.92979621  0.99223506     0.65600
H1937       H  0.07350654  0.92802737  0.01794624     0.18500
N1938       N  0.07872189  0.03619626  0.75371019     0.76100
H1939       H  0.14427828  0.03201700  0.74311330     0.10100
C1940       C  0.19962317  0.02410884  0.67835466     0.03800
C1941       C  0.23572989  0.03081804  0.67637620    -0.05000
C1942       C  0.25620752  0.00572259  0.69066527    -0.23300
C1943       C  0.24029864  0.97273754  0.70501157     0.13000
C1944       C  0.20434933  0.96572539  0.03988888    -0.12500
N1945       N  0.17950312  0.05140081  0.99981670     0.64700
H1946       H  0.24791296  0.05598095  0.66448261     0.12500
N1947       N  0.26026418  0.94530970  0.71564073     0.61300
H1948       H  0.19301788  0.94066628  0.05284268     0.08700
O1949       O  0.07104001  0.05854876  0.72448540    -0.40100
O1950       O  0.08492087  0.04558001  0.79508927    -0.39300
O1951       O  0.13130302  0.92967950  0.94947942    -0.39300
O1952       O  0.14800233  0.90263510  0.01004354    -0.37000
O1953       O  0.25722454  0.93149791  0.75620610    -0.37900
O1954       O  0.27486542  0.93082467  0.01389878    -0.34100
O1955       O  0.17933396  0.07725435  0.68967392    -0.35500
O1956       O  0.17305132  0.05601102  0.95718130    -0.39800
C1957       C  0.94623252  0.76324933  0.71422368    -0.13500
C1958       C  0.97690898  0.75760793  0.68921220     0.16900
C1959       C  0.99958407  0.78751468  0.67509005     0.03200
C1960       C  0.99183190  0.82089772  0.68739872    -0.12000
C1961       C  0.96096653  0.82631568  0.71173392    -0.03000
C1962       C  0.93766432  0.79669946  0.72396334     0.02400
C1963       C  0.98233637  0.72048538  0.67708956     0.09300
N1964       N  0.02575074  0.78544195  0.97973266     0.65600
H1965       H  0.00752203  0.84308174  0.01104901     0.18500
N1966       N  0.90363786  0.80009043  0.74198212     0.76100
H1967       H  0.92778168  0.74133539  0.72475789     0.10100
C1968       C  0.01236340  0.70483791  0.68792178     0.03800
C1969       C  0.01253600  0.66874904  0.68534842    -0.05000
C1970       C  0.98408544  0.64693214  0.67040052    -0.23300
C1971       C  0.95546083  0.66247508  0.65484978     0.13000
C1972       C  0.95462948  0.69858573  0.65888354    -0.12500
N1973       N  0.04308975  0.72440974  0.70252274     0.64700
H1974       H  0.03539955  0.65748250  0.69535749     0.12500
N1975       N  0.92192303  0.64008664  0.98313829     0.61300
H1976       H  0.92647378  0.70779040  0.99303771     0.08700
O1977       O  0.88094827  0.80797970  0.71445987    -0.40100
O1978       O  0.89724887  0.79886655  0.78576120    -0.39300
O1979       O  0.05532972  0.79798756  0.99178335    -0.39300
O1980       O  0.02011615  0.78395741  0.93652143    -0.37000
O1981       O  0.89869691  0.63102777  0.01427244    -0.37900
O1982       O  0.91543176  0.63594372  0.94029362    -0.34100
O1983       O  0.04811508  0.72602938  0.74591622    -0.35500
O1984       O  0.06913021  0.72716756  0.67459925    -0.39800
C1985       C  0.48993493  0.71240961  0.86838645    -0.13500
C1986       C  0.46088802  0.69239247  0.85232172     0.16900
C1987       C  0.43222536  0.70870596  0.83823360     0.03200
C1988       C  0.43347946  0.74457956  0.84041349    -0.12000
C1989       C  0.46350299  0.76443176  0.85358287    -0.03000
C1990       C  0.49279264  0.74818686  0.86535233     0.02400
C1991       C  0.46207665  0.65485986  0.84910956     0.09300
N1992       N  0.40254183  0.68967663  0.81929074     0.65600
H1993       H  0.41148834  0.75719633  0.83010334     0.18500
N1994       N  0.52645916  0.76690156  0.86886284     0.76100
H1995       H  0.51162981  0.70010526  0.88039753     0.10100
C1996       C  0.49109205  0.64128640  0.82882657     0.03800
C1997       C  0.49159348  0.60581715  0.82716987    -0.05000
C1998       C  0.46367475  0.58296412  0.84500365    -0.23300
C1999       C  0.43438533  0.59656414  0.86515754     0.13000
C2000       C  0.43446175  0.63228320  0.86794574    -0.12500
N2001       N  0.51964291  0.66297032  0.80754894     0.64700
H2002       H  0.51407655  0.59625266  0.81093678     0.12500
N2003       N  0.40349680  0.57519057  0.88026595     0.61300
H2004       H  0.41266275  0.64238941  0.88512174     0.08700
O2005       O  0.53921774  0.78518760  0.83424697    -0.40100
O2006       O  0.54679953  0.75699828  0.89849706    -0.39300
O2007       O  0.37510968  0.68431167  0.84442396    -0.39300
O2008       O  0.40087377  0.68720374  0.77522589    -0.37000
O2009       O  0.40262031  0.55856815  0.91875536    -0.37900
O2010       O  0.37530476  0.58072981  0.86282771    -0.34100
O2011       O  0.51803981  0.67286737  0.76536305    -0.35500
O2012       O  0.54866462  0.66480805  0.82621061    -0.39800
C2013       C  0.68614934  0.92911813  0.88136546    -0.13500
C2014       C  0.70996345  0.90457956  0.88278738     0.16900
C2015       C  0.69733671  0.86964963  0.87340682     0.03200
C2016       C  0.66252903  0.86064651  0.86266071    -0.12000
C2017       C  0.63957859  0.88554355  0.85947352    -0.03000
C2018       C  0.65186156  0.92026479  0.86834262     0.02400
C2019       C  0.74734046  0.91589996  0.89363096     0.09300
N2020       N  0.71941249  0.84284262  0.87320220     0.68400
H2021       H  0.65319864  0.83382041  0.85694979     0.18500
N2022       N  0.63026626  0.94717215  0.86278174     0.76100
H2023       H  0.69392993  0.95555263  0.89068251     0.10100
C2024       C  0.76597948  0.94671343  0.87429931     0.03800
C2025       C  0.80099292  0.95534397  0.88364081    -0.05000
C2026       C  0.81918595  0.93393838  0.91121015    -0.23300
C2027       C  0.80082954  0.90298007  0.93026709     0.13000
C2028       C  0.76524455  0.89534207  0.92321992    -0.12500
N2029       N  0.75060661  0.96923871  0.84329462     0.64700
H2030       H  0.81431424  0.97877989  0.86761761     0.12500
N2031       N  0.81827320  0.87721862  0.95279635     0.61300
H2032       H  0.75186176  0.87245537  0.94032225     0.08700
O2033       O  0.62766891  0.95983462  0.82211095    -0.40100
O2034       O  0.62320255  0.96472671  0.89800046    -0.39300
O2035       O  0.71593277  0.82038352  0.90601951    -0.39300
O2036       O  0.73470028  0.83621706  0.83516781    -0.37000
O2037       O  0.81452570  0.87224592  0.99668378    -0.37900
O2038       O  0.82993222  0.85428852  0.92800697    -0.34100
O2039       O  0.75577371  0.96657952  0.79957951    -0.35500
O2040       O  0.74267253  0.99756983  0.85879960    -0.39800
C2041       C  0.47310495  0.70158929  0.98920452    -0.13500
C2042       C  0.50229436  0.67823880  0.65784689     0.16900
C2043       C  0.53676765  0.69363679  0.66420383     0.03200
C2044       C  0.54345572  0.72940214  0.67307431    -0.12000
C2045       C  0.51672029  0.75051869  0.67686587    -0.03000
C2046       C  0.48010997  0.73683524  0.99940409     0.02400
C2047       C  0.49246998  0.63980731  0.65058476     0.09300
N2048       N  0.56543725  0.67376990  0.66176018     0.65600
H2049       H  0.56979180  0.74085769  0.67707874     0.18500
N2050       N  0.45247220  0.75791667  0.99829399     0.76100
H2051       H  0.44765028  0.69218543  0.97778354     0.10100
C2052       C  0.46217599  0.62153882  0.67228088     0.03800
C2053       C  0.45363763  0.58608889  0.66504066    -0.05000
C2054       C  0.47472821  0.56704750  0.63740261    -0.23300
C2055       C  0.50577275  0.58459698  0.61733845     0.13000
C2056       C  0.51330782  0.62062882  0.62199417    -0.12500
N2057       N  0.43433433  0.63824659  0.03371011     0.64700
H2058       H  0.42583854  0.57358216  0.01042788     0.12500
N2059       N  0.53157037  0.56585598  0.59621158     0.61300
H2060       H  0.53619959  0.63333722  0.60384207     0.08700
O2061       O  0.43399433  0.75733751  0.96267492    -0.40100
O2062       O  0.44083682  0.76872022  0.03658461    -0.39300
O2063       O  0.59048551  0.68266382  0.63320436    -0.39300
O2064       O  0.56676558  0.64853615  0.68974069    -0.37000
O2065       O  0.55103804  0.55064822  0.62197791    -0.37900
O2066       O  0.53458084  0.56381224  0.55207596    -0.34100
O2067       O  0.40572121  0.64463485  0.01840418    -0.35500
O2068       O  0.44383456  0.63465229  0.74727426    -0.39800
C2069       C  0.75573420  0.97689391  0.66934536    -0.13500
C2070       C  0.73226517  0.95009917  0.68839124     0.16900
C2071       C  0.74462823  0.92325228  0.71450925     0.03200
C2072       C  0.77983641  0.92288342  0.71932652    -0.12000
C2073       C  0.80371620  0.94923646  0.69960879    -0.03000
C2074       C  0.79117204  0.97716794  0.67563006     0.02400
C2075       C  0.69520498  0.94858619  0.67871962     0.09300
N2076       N  0.72162577  0.89685206  0.73824245     0.65600
H2077       H  0.78831872  0.90176377  0.73940468     0.18500
N2078       N  0.81334074  0.00728040  0.66069440     0.76100
H2079       H  0.74662621  0.99769036  0.64930720     0.10100
C2080       C  0.67544404  0.97609761  0.68800349     0.03800
C2081       C  0.63953980  0.97062438  0.68527900    -0.05000
C2082       C  0.62316725  0.93776632  0.67627137    -0.23300
C2083       C  0.64215711  0.91075819  0.00170046     0.13000
C2084       C  0.67870981  0.91702974  0.66409887    -0.12500
N2085       N  0.69085084  0.00866219  0.70389023     0.64700
H2086       H  0.62417542  0.99142683  0.69310063     0.12500
N2087       N  0.62712852  0.87546224  0.00031445     0.61300
H2088       H  0.69271958  0.89619834  0.99060716     0.08700
O2089       O  0.81203753  0.03446479  0.68384468    -0.40100
O2090       O  0.82496991  0.00975314  0.61871739    -0.39300
O2091       O  0.72199695  0.86566017  0.72710459    -0.39300
O2092       O  0.70490773  0.90408883  0.77477015    -0.37000
O2093       O  0.61454746  0.86106181  0.03801103    -0.37900
O2094       O  0.63735115  0.85641924  0.96848167    -0.34100
O2095       O  0.69181030  0.03489788  0.67708653    -0.35500
O2096       O  0.69466452  0.01277838  0.74741110    -0.39800
C2097       C  0.89413013  0.13942673  0.88155077    -0.13500
C2098       C  0.92316915  0.16332061  0.86933772     0.16900
C2099       C  0.95446596  0.15026336  0.85669533     0.03200
C2100       C  0.95597759  0.11462849  0.85587317    -0.12000
C2101       C  0.92735959  0.09069602  0.86861320    -0.03000
C2102       C  0.89580435  0.10340936  0.88061223     0.02400
C2103       C  0.92044592  0.20144803  0.86707888     0.09300
N2104       N  0.98515021  0.17263275  0.84380512     0.65600
H2105       H  0.98043193  0.10558045  0.84600512     0.18500
N2106       N  0.86463847  0.08054184  0.88715151     0.76100
H2107       H  0.86972241  0.14871599  0.89071954     0.10100
C2108       C  0.89532103  0.21557589  0.84037608     0.03800
C2109       C  0.89635109  0.25158584  0.83476184    -0.05000
C2110       C  0.92187833  0.27436026  0.85539993    -0.23300
C2111       C  0.94541505  0.26032294  0.88465194     0.13000
C2112       C  0.94421153  0.22435732  0.89064892    -0.12500
N2113       N  0.86847704  0.19386679  0.81884922     0.64700
H2114       H  0.87682609  0.26188418  0.81437723     0.12500
N2115       N  0.97158947  0.28211846  0.90717406     0.61300
H2116       H  0.96219036  0.21433549  0.91388999     0.08700
O2117       O  0.84956238  0.06858538  0.85133416    -0.40100
O2118       O  0.84772950  0.08042487  0.92574822    -0.39300
O2119       O  0.00596028  0.18206758  0.87537165    -0.39300
O2120       O  0.99621935  0.17371499  0.80153197    -0.37000
O2121       O  0.00192550  0.28541595  0.88954055    -0.37900
O2122       O  0.96677195  0.28994119  0.94960536    -0.34100
O2123       O  0.83735544  0.19537549  0.83134620    -0.35500
O2124       O  0.87578177  0.17224904  0.78866282    -0.39800
C2125       C  0.68921216  0.35495305  0.86999828    -0.13500
C2126       C  0.68145601  0.38694705  0.85126996     0.16900
C2127       C  0.71001408  0.41070910  0.83445391     0.03200
C2128       C  0.74358984  0.40130365  0.83346274    -0.12000
C2129       C  0.75066263  0.36909233  0.84987768    -0.03000
C2130       C  0.72337549  0.34604707  0.86942034     0.02400
C2131       C  0.64432485  0.39530645  0.84882982     0.09300
N2132       N  0.70610471  0.44450754  0.81693223     0.65600
H2133       H  0.76471892  0.41973380  0.82009256     0.18500
N2134       N  0.73009522  0.31342531  0.88829761     0.76100
H2135       H  0.66894750  0.33691663  0.88597850     0.10100
C2136       C  0.61649914  0.37184171  0.83263104     0.03800
C2137       C  0.58366126  0.38291319  0.82636545    -0.05000
C2138       C  0.57726924  0.41683665  0.83589468    -0.23300
C2139       C  0.60417285  0.43957312  0.85395007     0.13000
C2140       C  0.63658953  0.42846821  0.86132967    -0.12500
N2141       N  0.62031765  0.33649233  0.82310852     0.64700
H2142       H  0.56301331  0.36480561  0.81367648     0.12500
N2143       N  0.59854895  0.47378469  0.86714032     0.61300
H2144       H  0.65568241  0.44606011  0.87790738     0.08700
O2145       O  0.73706403  0.31083782  0.93112725    -0.40100
O2146       O  0.73571130  0.28945741  0.86071943    -0.39300
O2147       O  0.71180722  0.46958672  0.84427864    -0.39300
O2148       O  0.71100292  0.45027603  0.77336345    -0.37000
O2149       O  0.58945645  0.47932043  0.90908914    -0.37900
O2150       O  0.60965470  0.49900292  0.84032017    -0.34100
O2151       O  0.61237589  0.31431062  0.85562404    -0.35500
O2152       O  0.61915530  0.32655231  0.78109236    -0.39800
C2153       C  0.93230987  0.14662564  0.98742811    -0.13500
C2154       C  0.89966154  0.15253114  0.66640881     0.16900
C2155       C  0.87539947  0.12466341  0.68215073     0.03200
C2156       C  0.88430479  0.09088055  0.68180253    -0.12000
C2157       C  0.91673861  0.08323717  0.66512676    -0.03000
C2158       C  0.94182835  0.11276559  0.98824896     0.02400
C2159       C  0.89117979  0.18907728  0.66857245     0.09300
N2160       N  0.84173958  0.13004944  0.69998759     0.65600
H2161       H  0.86561730  0.07039118  0.69557854     0.18500
N2162       N  0.97758909  0.10821800  0.98296710     0.76100
H2163       H  0.95163630  0.16782314  0.97713729     0.10100
C2164       C  0.91032612  0.21452934  0.69507214     0.03800
C2165       C  0.89932528  0.24758992  0.69954450    -0.05000
C2166       C  0.86880757  0.25764056  0.00995151    -0.23300
C2167       C  0.85068804  0.23226070  0.98240239     0.13000
C2168       C  0.86337766  0.19871300  0.64346192    -0.12500
N2169       N  0.94150379  0.20758689  0.71647861     0.64700
H2170       H  0.91415115  0.26662149  0.72033063     0.12500
N2171       N  0.82145835  0.23974773  0.95695935     0.61300
H2172       H  0.84681862  0.18013632  0.95813957     0.08700
O2173       O  0.99571215  0.10926753  0.01894286    -0.40100
O2174       O  0.99236753  0.11046666  0.94274076    -0.39300
O2175       O  0.83398508  0.12357805  0.74291162    -0.39300
O2176       O  0.81770642  0.13063857  0.67153399    -0.37000
O2177       O  0.82524902  0.24702964  0.91355134    -0.37900
O2178       O  0.79159316  0.23021490  0.97413105    -0.34100
O2179       O  0.97014216  0.22191796  0.70003900    -0.35500
O2180       O  0.94090805  0.18398300  0.74740951    -0.39800
C2181       C  0.63404070  0.39843238  0.66173254    -0.13500
C2182       C  0.65591037  0.42661384  0.67839809     0.16900
C2183       C  0.63664607  0.45090308  0.04620542     0.03200
C2184       C  0.60050811  0.44770611  0.05075925    -0.12000
C2185       C  0.57971751  0.42097466  0.02952114    -0.03000
C2186       C  0.59797038  0.39616106  0.66859570     0.02400
C2187       C  0.69433160  0.42627568  0.67443335     0.09300
N2188       N  0.65524381  0.48187627  0.06271399     0.65600
H2189       H  0.58843324  0.46847453  0.06711272     0.18500
N2190       N  0.57694614  0.36778041  0.64934233     0.76100
H2191       H  0.64503909  0.37825005  0.64256517     0.10100
C2192       C  0.70979596  0.39837968  0.69348712     0.03800
C2193       C  0.74572460  0.39960339  0.69426704    -0.05000
C2194       C  0.76542350  0.42848589  0.01387110    -0.23300
C2195       C  0.74921815  0.45628635  0.99617479     0.13000
C2196       C  0.71290731  0.45491605  0.99878874    -0.12500
N2197       N  0.68924080  0.36926565  0.71457703     0.64700
H2198       H  0.75691109  0.37825271  0.71019895     0.12500
N2199       N  0.76909212  0.48581702  0.97485258     0.61300
H2200       H  0.70107210  0.47617463  0.98397301     0.08700
O2201       O  0.57402890  0.33883512  0.67043972    -0.40100
O2202       O  0.56785036  0.36953812  0.60730928    -0.39300
O2203       O  0.66253883  0.50688548  0.03402618    -0.39300
O2204       O  0.65284984  0.48835829  0.10594663    -0.37000
O2205       O  0.77472317  0.48661215  0.93085331    -0.37900
O2206       O  0.77290820  0.51366070  0.99716421    -0.34100
O2207       O  0.68684016  0.34050182  0.69443654    -0.35500
O2208       O  0.67015542  0.37338021  0.75011232    -0.39800
loop_ 
_geom_bond_atom_site_label_1 
_geom_bond_atom_site_label_2 
_geom_bond_distance 
_geom_bond_site_symmetry_2 
_ccdc_geom_bond_type 
C1            C3   1.573       .  S
C1            C5   1.564       .  S
C1            C4   1.570       .  S
C1           C25   1.738       .  S
C2            C6   1.582       .  S
C2            C8   1.585       .  S
C2            C7   1.574       .  S
C2           C24   1.797       .  S
C3           C11   1.399       .  A
C3          C742   1.449       .  A
C4           C15   1.381       .  A
C4          C743   1.446       .  A
C5           C19   1.384       .  A
C5          C744   1.439       .  A
C6            C9   1.378       .  A
C6         C1475   1.451   1_554  A
C7           C13   1.384       .  A
C7         C1476   1.444   1_554  A
C8           C16   1.391       .  A
C8         C1477   1.440   1_554  A
C9           N10   1.349       .  A
C9           H22   1.067       .  S
N10        C1483   1.349   1_554  A
N10         N154   1.423       .  S
C11         N746   1.350       .  A
C11          H12   1.079       .  S
C13        N1486   1.362       .  A
C13          H23   1.079       .  S
N14          C15   1.355       .  A
N14         C749   1.362       .  A
N14         C722   1.445       .  S
C15          H21   1.079       .  S
C16        N1489   1.364       .  A
C16          H18   1.076       .  S
N17          C19   1.357       .  A
N17         C752   1.366       .  A
N17         C694   1.456       .  S
C19          H20   1.080       .  S
C24          C26   1.589       .  S
C24          C28   1.575       .  S
C24          C27   1.578       .  S
C25          C29   1.571       .  S
C25          C31   1.565       .  S
C25          C30   1.567       .  S
C26          C34   1.382       .  A
C26          C29   1.452       .  A
C27          C38   1.386       .  A
C27          C30   1.439       .  A
C28          C42   1.388       .  A
C28          C31   1.442       .  A
C29          C32   1.400       .  A
C30          C36   1.388       .  A
C31          C39   1.374       .  A
C32          N33   1.351       .  A
C32          H45   1.080       .  S
N33          C34   1.351       .  A
N33         N177   1.426       .  S
C34          H35   1.069       .  S
C36          N37   1.361       .  A
C36          H46   1.081       .  S
N37          C38   1.361       .  A
N37         C657   1.451       .  S
C38          H44   1.079       .  S
C39          N40   1.352       .  A
C39          H41   1.077       .  S
N40          C42   1.363       .  A
N40         C638   1.447       .  S
C42          H43   1.077       .  S
C47          C49   1.573       .  S
C47          C51   1.587       .  S
C47          C50   1.556       .  S
C47          C70   1.768       .  S
C48         C788   1.563       .  S
C48         C790   1.564       .  S
C48         C789   1.561       .  S
C48          C71   1.761       .  S
C49          C57   1.379       .  A
C49          C52   1.451   1_554  A
C50          C61   1.371       .  A
C50          C53   1.445   1_554  A
C51          C65   1.400       .  A
C51          C54   1.449   1_554  A
C52        C1520   1.563       .  S
C52        C1527   1.373       .  A
C53        C1520   1.553       .  S
C53        C1531   1.368       .  A
C54        C1520   1.564       .  S
C54        C1534   1.372       .  A
C55         C788   1.374       .  A
C55         N792   1.360       .  A
C55          H68   1.079       .  S
N56          C57   1.363       .  A
N56        C1527   1.359   1_554  A
N56         N200   1.418       .  S
C57          H58   1.079       .  S
C59         C789   1.373       .  A
C59         N796   1.353       .  A
C59          H69   1.076       .  S
N60          C61   1.349       .  A
N60        C1531   1.349   1_554  A
N60         C610   1.424       .  S
C61          H67   1.077       .  S
C62         C790   1.376       .  A
C62         N799   1.353       .  A
C62          H64   1.069       .  S
N63          C65   1.362       .  A
N63        C1534   1.350   1_554  A
N63         C573   1.452       .  S
C65          H66   1.075       .  S
C70          C72   1.569       .  S
C70          C74   1.584       .  S
C70          C73   1.556       .  S
C71          C75   1.568       .  S
C71          C77   1.556       .  S
C71          C76   1.553       .  S
C72          C80   1.377       .  A
C72          C75   1.450       .  A
C73          C84   1.371       .  A
C73          C76   1.447       .  A
C74          C88   1.396       .  A
C74          C77   1.450       .  A
C75          C78   1.376       .  A
C76          C82   1.368       .  A
C77          C85   1.368       .  A
C78          N79   1.361       .  A
C78          H91   1.079       .  S
N79          C80   1.362       .  A
N79         N223   1.419       .  S
C80          H81   1.079       .  S
C82          N83   1.350       .  A
C82          H92   1.076       .  S
N83          C84   1.348       .  A
N83         C517   1.424       .  S
C84          H90   1.078       .  S
C85          N86   1.346       .  A
C85          H87   1.071       .  S
N86          C88   1.358       .  A
N86         C545   1.444       .  S
C88          H89   1.069       .  S
O93         Ni99   1.894   1_455  S
O93         C850   1.270   1_545  A
O94        Ni117   1.899       .  S
O94         C103   1.273       .  A
O95        Ni117   1.895       .  S
O95        Ni111   2.016       .  S
O95       Ni1571   1.877   1_565  S
O95         H118   0.948   1_565  S
C96         O113   1.283       .  A
C96         O105   1.286       .  A
C96         C489   1.512       .  S
O97        Ni116   1.932       .  S
O97         C103   1.282       .  A
O98        Ni116   1.839       .  S
O98         C100   1.260       .  A
Ni99        O102   1.925       .  S
Ni99        O104   1.842   1_545  S
Ni99        O831   1.877   1_545  S
C100        O110   1.238       .  A
C100        C132   1.386       .  S
O101       Ni117   1.917   1_545  S
O101        C107   1.269       .  A
O102        C843   1.272       .  A
C103        C601   1.481       .  S
O104        C106   1.261       .  A
O105       Ni116   1.964       .  S
C106        O112   1.286       .  A
C106        C126   1.442       .  S
C107       O1574   1.272   1_554  A
C107        C685   1.497       .  S
H108        O845   0.944       .  S
O109       Ni117   1.907       .  S
O109       Ni111   1.954       .  S
O109       Ni116   1.869       .  S
O109       H1580   0.941       .  S
O110       Ni111   1.817       .  S
Ni111       O115   1.961   1_655  S
Ni111       O113   1.939       .  S
O112       Ni853   1.905       .  S
C114        O115   1.287       .  A
C114       O1565   1.268   1_565  A
C114        C461   1.485       .  S
Ni117      O1584   1.904   1_554  S
O119       Ni125   1.939   1_455  S
O119        C140   1.278   1_545  A
O120       Ni143   1.940       .  S
O120        C129   1.283       .  A
O121       Ni125   1.877   1_565  S
O121       Ni143   1.970       .  S
O121       Ni137   2.014       .  S
O121        H144   0.946       .  S
C122        O139   1.288       .  A
C122        O131   1.274       .  A
C122        C433   1.509       .  S
O123       Ni142   1.928       .  S
O123        C129   1.277       .  A
O124       Ni142   1.873       .  S
O124        C126   1.257       .  A
Ni125       O128   1.932       .  S
Ni125       O130   1.849   1_545  S
C126        O136   1.241       .  A
O127       Ni143   1.947   1_545  S
O127        C133   1.282       .  A
O128        C133   1.276       .  A
C129        C554   1.505       .  S
O130        C132   1.276       .  A
O131       Ni142   1.914       .  S
C132        O138   1.257       .  A
C133        C629   1.489       .  S
H134        O135   0.941       .  S
O135       Ni143   1.950       .  S
O135       Ni137   1.965       .  S
O135       Ni142   1.880       .  S
O136       Ni137   1.867       .  S
Ni137       O141   1.922   1_655  S
Ni137       O139   1.957       .  S
O138       Ni143   1.855       .  S
C140        O141   1.274       .  A
C140        C405   1.493       .  S
C145        C147   1.573       .  S
C145        C149   1.584       .  S
C145        C148   1.582       .  S
C145       C1641   1.742       .  S
C146        C150   1.575       .  S
C146        C152   1.570       .  S
C146        C151   1.573       .  S
C146        C168   1.780       .  S
C147        C155   1.399   1_455  A
C147        C150   1.445   1_556  A
C148        C159   1.398       .  A
C148        C151   1.441   1_556  A
C149        C163   1.395   1_455  A
C149        C152   1.438   1_556  A
C150        C153   1.375   1_455  A
C151        C157   1.384       .  A
C152        C160   1.384   1_455  A
C153        N154   1.348       .  A
C153        H166   1.068       .  S
N154        C155   1.352   1_554  A
C155       H1628   1.080       .  S
H156        C891   1.080       .  S
C157        N158   1.358       .  A
C157        H167   1.079       .  S
N158        C159   1.363   1_554  A
N158        C386   1.458       .  S
C159       H1637   1.079       .  S
C160        N161   1.360       .  A
C160        H162   1.074       .  S
N161        C163   1.361   1_554  A
N161        C498   1.458       .  S
C163       H1636   1.076       .  S
H164        C899   1.078       .  S
H165        C895   1.081       .  S
C168        C170   1.580   1_455  S
C168        C172   1.575       .  S
C168        C171   1.570       .  S
C169        C173   1.579   1_455  S
C169        C175   1.565       .  S
C169        C174   1.577       .  S
C169        C881   1.733       .  S
C170        C178   1.379       .  A
C170        C173   1.452       .  A
C171        C182   1.383       .  A
C171        C174   1.433       .  A
C172        C186   1.389       .  A
C172        C175   1.439       .  A
C173        C176   1.402       .  A
C174        C180   1.388       .  A
C175        C183   1.387       .  A
C176        N177   1.352       .  A
C176        H189   1.080       .  S
N177        C178   1.347       .  A
C178        H179   1.068       .  S
C180        N181   1.360       .  A
C180        H190   1.079       .  S
N181        C182   1.363       .  A
N181        C349   1.451       .  S
C182        H188   1.072       .  S
C183        N184   1.356       .  A
C183        H185   1.079       .  S
N184        C186   1.357       .  A
N184        C442   1.450       .  S
C186        H187   1.077       .  S
C191        C193   1.570   1_545  S
C191        C195   1.556       .  S
C191        C194   1.567       .  S
C191        C215   1.765       .  S
C192        C196   1.559   1_545  S
C192        C198   1.569       .  S
C192        C197   1.571       .  S
C192        C214   1.761       .  S
C193        C201   1.378       .  A
C193        C932   1.447       .  A
C194        C205   1.377       .  A
C194        C933   1.457       .  A
C195        C209   1.371       .  A
C195        C934   1.446       .  A
C196        C199   1.375       .  A
C196       C1665   1.443   1_554  A
C197        C203   1.381       .  A
C197       C1666   1.455   1_554  A
C198        C206   1.379       .  A
C198       C1667   1.444   1_554  A
C199        N200   1.360       .  A
C199        H212   1.079       .  S
N200       C1673   1.363   1_554  A
C201        N936   1.362       .  A
C201        H202   1.079       .  S
C203        N204   1.352       .  A
C203        H213   1.079       .  S
N204       C1677   1.353   1_554  A
N204        C321   1.437       .  S
C205        N940   1.353       .  A
C205        H211   1.076       .  S
C206        N207   1.357       .  A
C206        H208   1.078       .  S
N207       C1681   1.352   1_554  A
N207        C470   1.434       .  S
C209        N943   1.350       .  A
C209        H210   1.081       .  S
C214        C216   1.564   1_545  S
C214        C218   1.568   1_545  S
C214        C217   1.557       .  S
C215        C219   1.562   1_545  S
C215        C221   1.580   1_545  S
C215        C220   1.576       .  S
C216        C224   1.377       .  A
C216        C219   1.441       .  A
C217        C228   1.369       .  A
C217        C220   1.440       .  A
C218        C232   1.377       .  A
C218        C221   1.454       .  A
C219        C222   1.376       .  A
C220        C226   1.385       .  A
C221        C229   1.388       .  A
C222        N223   1.362       .  A
C222        H235   1.079       .  S
N223        C224   1.362       .  A
C224        H225   1.079       .  S
C226        N227   1.362       .  A
C226        H236   1.067       .  S
N227        C228   1.350       .  A
N227        C293   1.447       .  S
C228        H234   1.066       .  S
C229        N230   1.357       .  A
C229        H231   1.078       .  S
N230        C232   1.355       .  A
N230        C414   1.444       .  S
C232        H233   1.076       .  S
O237       Ni243   1.935       .  S
O237        C258   1.280       .  A
O238       Ni261   1.927       .  S
O238        C247   1.276       .  A
O239       Ni243   1.881   1_556  S
O239       Ni261   1.973       .  S
O239       Ni255   2.001   1_556  S
O239       H1734   0.947       .  S
C240        O249   1.268       .  A
C240        O993   1.282       .  A
C240        C713   1.474       .  S
O241       Ni260   1.920       .  S
O241        C983   1.270       .  A
O242       Ni260   1.872       .  S
O242        C244   1.259       .  A
Ni243       O246   1.942       .  S
Ni243       O248   1.842       .  S
C244        O254   1.247       .  A
C244        C276   1.476       .  S
O245       Ni261   1.922       .  S
O245        C251   1.274   1_556  A
O246        C251   1.278       .  A
C247       O1713   1.275       .  A
C247        C582   1.500       .  S
O248        C250   1.273       .  A
O249       Ni260   1.892       .  S
C250        O256   1.252       .  A
C250        C270   1.378       .  S
C251        C377   1.488       .  S
H252        O253   0.941       .  S
O253       Ni261   1.940   1_554  S
O253       Ni255   1.958       .  S
O253      Ni1732   1.883   1_554  S
O254       Ni991   1.867       .  S
Ni255       O259   1.911       .  S
Ni255       O257   1.971       .  S
Ni255      O1726   1.873   1_554  S
O256       Ni261   1.853   1_554  S
O257       C1712   1.289       .  A
C258        O259   1.270       .  A
C258        C330   1.493       .  S
Ni260       O989   1.873       .  S
H262        O975   0.949       .  S
O263       Ni269   1.876       .  S
O263        C284   1.269       .  A
O264       Ni287   1.896       .  S
O264        C273   1.271       .  A
O265       Ni269   1.889       .  S
O265       Ni287   1.893       .  S
O265       Ni281   2.035       .  S
O265        H288   0.952       .  S
C266        O283   1.288       .  A
C266        O275   1.290       .  A
C266        C666   1.507       .  S
O267       Ni286   1.932       .  S
O267        C273   1.282       .  A
O268       Ni286   1.836       .  S
O268        C270   1.258       .  A
Ni269       O272   1.916       .  S
Ni269       O274   1.857       .  S
C270        O280   1.230       .  A
O271       Ni287   1.940       .  S
O271        C277   1.270       .  A
O272        C277   1.269       .  A
C273        C526   1.477       .  S
O274        C276   1.264       .  A
O275       Ni286   1.970       .  S
C276        O282   1.289       .  A
C277        C358   1.523       .  S
H278        O279   0.911       .  S
O279       Ni287   1.905       .  S
O279       Ni281   1.965       .  S
O279       Ni286   1.866       .  S
O280       Ni281   1.817       .  S
Ni281       O285   1.978       .  S
Ni281       O283   1.958       .  S
O282       Ni287   1.908       .  S
C284        O285   1.290       .  A
C284        C302   1.508       .  S
C289        C290   1.409       .  A
C289        C294   1.399       .  A
C289        H299   1.082       .  S
C290        C291   1.428       .  A
C290        C295   1.515       .  S
C291        C292   1.414       .  A
C291        N296   1.440       .  S
C292        C293   1.402       .  A
C292        H297   1.083       .  S
C293        C294   1.405       .  A
C294        N298   1.425       .  S
C295        C300   1.411       .  A
C295        C304   1.418       .  A
N296        O311   1.263       .  A
N296        O312   1.261       .  A
N298        O309   1.259       .  A
N298        O310   1.262       .  A
C300        C301   1.390       .  A
C300        N305   1.434       .  S
C301        C302   1.416       .  A
C301        H306   1.083       .  S
C302        C303   1.421       .  A
C303        C304   1.419       .  A
C303        N307   1.442       .  S
C304        H308   1.081       .  S
N305        O315   1.261       .  A
N305        O316   1.263       .  A
N307        O313   1.262       .  A
N307        O314   1.262       .  A
C317        C318   1.404       .  A
C317        C322   1.392       .  A
C317        H327   1.075       .  S
C318       C1791   1.424       .  A
C318        C323   1.510       .  S
C319        C320   1.409       .  A
C319       C1054   1.421       .  A
C319        N324   1.428       .  S
C320       C1057   1.401       .  A
C320        H325   1.083       .  S
C321        C322   1.411       .  A
C321       C1792   1.399       .  A
C322        N326   1.431       .  S
C323        C332   1.407       .  A
C323       C1800   1.420       .  A
N324        O339   1.262       .  A
N324        O340   1.262       .  A
N326        O337   1.261   1_554  A
N326        O338   1.258       .  A
C328       C1059   1.417       .  A
C328       C1065   1.391       .  A
C328        N333   1.426       .  S
C329        C330   1.401       .  A
C329       C1800   1.396       .  A
C329       H1806   1.084       .  S
C330        C331   1.421       .  A
C331        C332   1.408       .  A
C331        N335   1.436       .  S
C332        H336   1.079       .  S
N333        O343   1.262       .  A
N333        O344   1.257       .  A
H334       C1065   1.085       .  S
N335        O341   1.261       .  A
N335        O342   1.261       .  A
C345        C346   1.418       .  A
C345        C350   1.416       .  A
C345        H355   1.082       .  S
C346        C347   1.426       .  A
C346        C351   1.530       .  S
C347        C348   1.406       .  A
C347        N352   1.429       .  S
C348        C349   1.398       .  A
C348        H353   1.084       .  S
C349        C350   1.409       .  A
C350        N354   1.428       .  S
C351        C356   1.425       .  A
C351        C360   1.409       .  A
N352        O367   1.261       .  A
N352        O368   1.260       .  A
N354        O365   1.262       .  A
N354        O366   1.262       .  A
C356        C357   1.420       .  A
C356        N361   1.434       .  S
C357        C358   1.410       .  A
C357        H362   1.079       .  S
C358        C359   1.418       .  A
C359        C360   1.412       .  A
C359        N363   1.429       .  S
C360        H364   1.077       .  S
N361        O371   1.262       .  A
N361        O372   1.262       .  A
N363        O369   1.261       .  A
N363        O370   1.260       .  A
C373        C374   1.416       .  A
C373        C378   1.399       .  A
C373       H1855   1.080       .  S
C374        C375   1.425       .  A
C374        C379   1.529       .  S
C375        C376   1.413       .  A
C375        N380   1.431       .  S
C376        C377   1.404       .  A
C376        H381   1.084       .  S
C377        C378   1.405       .  A
C378        N382   1.431       .  S
C379        C384   1.429   1_554  A
C379        C388   1.411       .  A
N380        O395   1.262       .  A
N380        O396   1.262   1_554  A
N382        O394   1.262   1_554  A
N382       O1865   1.262       .  A
H383       C1109   1.080       .  S
C384        C385   1.420       .  A
C384       N1861   1.433       .  S
C385        C386   1.403   1_556  A
C385       H1862   1.083       .  S
C386        C387   1.415       .  A
C387        C388   1.408       .  A
C387        N391   1.440       .  S
C388        H392   1.080       .  S
N389       C1120   1.432       .  S
N389        O399   1.263       .  A
N389        O400   1.263       .  A
H390       C1121   1.083       .  S
N391        O397   1.262       .  A
N391        O398   1.263       .  A
O393       N1118   1.262       .  A
C401        C402   1.403       .  A
C401        C406   1.402       .  A
C401        H411   1.075   1_565  S
C402        C403   1.417       .  A
C402        C407   1.506       .  S
C403        C404   1.408       .  A
C403        N408   1.427       .  S
C404        C405   1.405       .  A
C404        H409   1.084       .  S
C405        C406   1.414       .  A
C406        N410   1.430   1_565  S
C407        C412   1.418       .  A
C407        C416   1.411       .  A
N408        O423   1.262       .  A
N408        O424   1.258       .  A
N410        O421   1.262       .  A
N410        O422   1.262       .  A
C412        C413   1.401       .  A
C412        N417   1.430   1_565  S
C413        C414   1.401       .  A
C413        H418   1.083   1_565  S
C414        C415   1.405       .  A
C415        C416   1.409       .  A
C415        N419   1.427       .  S
C416        H420   1.080       .  S
N417        O427   1.262       .  A
N417        O428   1.260       .  A
N419        O425   1.262       .  A
N419        O426   1.261       .  A
C429        C430   1.411   1_655  A
C429        C434   1.406       .  A
C429        H439   1.084       .  S
C430        C431   1.421       .  A
C430        C435   1.519       .  S
C431        C432   1.412       .  A
C431        N436   1.424       .  S
C432        C433   1.404   1_455  A
C432        H437   1.084       .  S
C433        C434   1.424       .  A
C434        N438   1.432       .  S
C435        C440   1.428       .  A
C435        C444   1.409   1_455  A
N436        O451   1.258       .  A
N436        O452   1.261       .  A
N438        O449   1.261       .  A
N438        O450   1.261       .  A
C440        C441   1.413       .  A
C440        N445   1.426       .  S
C441        C442   1.398       .  A
C441        H446   1.083       .  S
C442        C443   1.414   1_455  A
C443        C444   1.406       .  A
C443        N447   1.430       .  S
C444        H448   1.084       .  S
N445        O455   1.262       .  A
N445        O456   1.259       .  A
N447        O453   1.262       .  A
N447        O454   1.262       .  A
C457        C458   1.398   1_545  A
C457        C462   1.394       .  A
C457        H467   1.081       .  S
C458       C1931   1.419       .  A
C458       C1935   1.493       .  S
C459        C460   1.405       .  A
C459       C1194   1.419       .  A
C459        N464   1.431       .  S
C460       C1197   1.404       .  A
C460        H465   1.084       .  S
C461        C462   1.422   1_565  A
C461       C1932   1.404       .  A
C462        N466   1.433       .  S
C463        C472   1.400       .  A
C463       C1204   1.424   1_565  A
C463       C1194   1.488       .  S
N464        O479   1.260       .  A
N464        O480   1.261       .  A
N466        O477   1.262       .  A
N466        O478   1.261       .  A
C468        C469   1.402       .  A
C468       C1935   1.424   1_545  A
C468       N1945   1.431   1_554  S
C469        C470   1.395       .  A
C469        H474   1.083   1_554  S
C470        C471   1.410   1_545  A
C471       C1944   1.398       .  A
C471        N475   1.429       .  S
C472       C1207   1.397       .  A
C472        H476   1.080       .  S
N473       C1204   1.432       .  S
N473        O484   1.260       .  A
N473       O1219   1.262       .  A
N475        O481   1.262       .  A
N475       O1954   1.262       .  A
O482       N1211   1.262       .  A
O483       N1945   1.262   1_554  A
C485        C486   1.414       .  A
C485        C490   1.411       .  A
C485        H495   1.083       .  S
C486        C487   1.426       .  A
C486        C491   1.533       .  S
C487        C488   1.413       .  A
C487       N1964   1.425   1_654  S
C488        C489   1.404       .  A
C488       H1965   1.084   1_655  S
C489        C490   1.416       .  A
C490        N494   1.428       .  S
C491        C496   1.424   1_655  A
C491        C500   1.418   1_554  A
N492       C1223   1.423       .  S
N492        O507   1.261       .  A
N492        O508   1.258       .  A
H493       C1224   1.084   1_455  S
N494        O505   1.262       .  A
N494        O506   1.260       .  A
C496        C497   1.413       .  A
C496        N501   1.425       .  S
C497        C498   1.402   1_455  A
C497        H502   1.084       .  S
C498        C499   1.407   1_554  A
C499        C500   1.417       .  A
C499       N1975   1.426       .  S
C500       H1976   1.083       .  S
N501        O511   1.258       .  A
N501        O512   1.262       .  A
N503       C1235   1.427       .  S
N503        O509   1.262       .  A
N503        O510   1.262       .  A
H504       C1236   1.083       .  S
C513        C514   1.396       .  A
C513        C518   1.386       .  A
C513        H523   1.083       .  S
C514        C515   1.413       .  A
C514        C519   1.474       .  S
C515        C516   1.398       .  A
C515        N520   1.428       .  S
C516        C517   1.396       .  A
C516        H521   1.083       .  S
C517        C518   1.414       .  A
C518        N522   1.436       .  S
C519        C524   1.412       .  A
C519        C528   1.401       .  A
N520        O535   1.262       .  A
N520        O536   1.262       .  A
N522        O533   1.260       .  A
N522        O534   1.263       .  A
C524        C525   1.381       .  A
C524        N529   1.432       .  S
C525        C526   1.401       .  A
C525        H530   1.083       .  S
C526        C527   1.418       .  A
C527        C528   1.401       .  A
C527        N531   1.430       .  S
C528        H532   1.083       .  S
N529        O539   1.260       .  A
N529        O540   1.263       .  A
N531        O537   1.261       .  A
N531        O538   1.261       .  A
C541        C542   1.410       .  A
C541        C546   1.407       .  A
C541        H551   1.079       .  S
C542        C543   1.428       .  A
C542        C547   1.520       .  S
C543        C544   1.408       .  A
C543        N548   1.428       .  S
C544        C545   1.396       .  A
C544        H549   1.083       .  S
C545        C546   1.411       .  A
C546        N550   1.429       .  S
C547        C552   1.425       .  A
C547        C556   1.408       .  A
N548        O563   1.263       .  A
N548        O564   1.261       .  A
N550        O561   1.262       .  A
N550        O562   1.262       .  A
C552        C553   1.408       .  A
C552        N557   1.430       .  S
C553        C554   1.405       .  A
C553        H558   1.084       .  S
C554        C555   1.419       .  A
C555        C556   1.407       .  A
C555        N559   1.431       .  S
C556        H560   1.079       .  S
N557        O567   1.260       .  A
N557        O568   1.262       .  A
N559        O565   1.261       .  A
N559        O566   1.262       .  A
C569        C574   1.407       .  A
C569       C1306   1.407       .  A
C569        H579   1.080       .  S
C570        C571   1.423   1_556  A
C570       C2041   1.405       .  A
C570        C575   1.513       .  S
C571        C572   1.415       .  A
C571        N576   1.433       .  S
C572        C573   1.403       .  A
C572        H577   1.083       .  S
C573       C2046   1.414   1_554  A
C574       C1309   1.411       .  A
C574        N578   1.427       .  S
C575        C580   1.420   1_556  A
C575        C584   1.411       .  A
N576        O591   1.262   1_554  A
N576        O592   1.263       .  A
N578        O589   1.261       .  A
N578        O590   1.262       .  A
C580        C581   1.403   1_554  A
C580       N2057   1.429       .  S
C581        C582   1.404       .  A
C581       H2058   1.084   1_556  S
C582        C583   1.415       .  A
C583        C584   1.408       .  A
C583        N587   1.431       .  S
C584        H588   1.082       .  S
N585       C1316   1.429       .  S
N585        O595   1.262       .  A
N585       O1332   1.260       .  A
H586       C1317   1.084       .  S
N587        O593   1.262       .  A
N587        O594   1.261       .  A
O596       N2057   1.260       .  A
C597        C598   1.397       .  A
C597        C602   1.399       .  A
C597        H607   1.083   1_554  S
C598        C599   1.412       .  A
C598        C603   1.476       .  S
C599        C600   1.385       .  A
C599        N604   1.429       .  S
C600        C601   1.401       .  A
C600        H605   1.083       .  S
C601        C602   1.416       .  A
C602        N606   1.423   1_564  S
C603        C608   1.413       .  A
C603        C612   1.397   1_554  A
N604        O619   1.262       .  A
N604        O620   1.260       .  A
N606        O617   1.260   1_556  A
N606        O618   1.260       .  A
C608        C609   1.398       .  A
C608        N613   1.428   1_565  S
C609        C610   1.396       .  A
C609        H614   1.083       .  S
C610       C2083   1.415       .  A
C611       C1346   1.413       .  A
C611       C1348   1.386       .  A
C611        N615   1.434       .  S
C612       C2083   1.386   1_556  A
C612       H2088   1.084       .  S
N613        O623   1.262       .  A
N613        O624   1.262       .  A
N615        O621   1.261       .  A
N615        O622   1.262       .  A
H616       C1348   1.083       .  S
C625        C626   1.410       .  A
C625        C630   1.412       .  A
C625        H635   1.083       .  S
C626        C627   1.413       .  A
C626        C631   1.497       .  S
C627        C628   1.396       .  A
C627        N632   1.431       .  S
C628        C629   1.402       .  A
C628        H633   1.084       .  S
C629        C630   1.412       .  A
C630        N634   1.427       .  S
C631        C636   1.412       .  A
C631        C640   1.404       .  A
N632        O647   1.262       .  A
N632        O648   1.261       .  A
N634        O645   1.262       .  A
N634        O646   1.259       .  A
C636        C637   1.405       .  A
C636        N641   1.428       .  S
C637        C638   1.408       .  A
C637        H642   1.082       .  S
C638        C639   1.411       .  A
C639        C640   1.401       .  A
C639        N643   1.427       .  S
C640        H644   1.081       .  S
N641        O651   1.262       .  A
N641        O652   1.260       .  A
N643        O649   1.262       .  A
N643        O650   1.262       .  A
C653        C654   1.419       .  A
C653        C658   1.420       .  A
C653        H663   1.077       .  S
C654        C655   1.435       .  A
C654        C659   1.537       .  S
C655        C656   1.407       .  A
C655        N660   1.429       .  S
C656        C657   1.393       .  A
C656        H661   1.084       .  S
C657        C658   1.405       .  A
C658        N662   1.427       .  S
C659        C664   1.435       .  A
C659        C668   1.409       .  A
N660        O675   1.262       .  A
N660        O676   1.260       .  A
N662        O673   1.262       .  A
N662        O674   1.262       .  A
C664        C665   1.419       .  A
C664        N669   1.431       .  S
C665        C666   1.403       .  A
C665        H670   1.084       .  S
C666        C667   1.413       .  A
C667        C668   1.409       .  A
C667        N671   1.429       .  S
C668        H672   1.077       .  S
N669        O679   1.262       .  A
N669        O680   1.262       .  A
N671        O677   1.261       .  A
N671        O678   1.261       .  A
C681        C686   1.412       .  A
C681       C1418   1.413       .  A
C681        H691   1.081       .  S
C682        C683   1.415       .  A
C682       C2153   1.411   1_554  A
C682        C687   1.504       .  S
C683        C684   1.399       .  A
C683        N688   1.432       .  S
C684        C685   1.401       .  A
C684        H689   1.076       .  S
C685       C2158   1.415   1_554  A
C686       C1421   1.414       .  A
C686        N690   1.429       .  S
C687        C692   1.417       .  A
C687        C696   1.405   1_554  A
N688        O703   1.262       .  A
N688        O704   1.261       .  A
N690        O701   1.262       .  A
N690        O702   1.260       .  A
C692        C693   1.410       .  A
C692        N697   1.432       .  S
C693       C2166   1.408       .  A
C693        H698   1.083       .  S
C694        C695   1.414       .  A
C694       C1429   1.405       .  A
C695       C1432   1.412       .  A
C695        N699   1.427       .  S
C696       C2167   1.406       .  A
C696       H2172   1.081       .  S
N697        O707   1.262       .  A
N697        O708   1.261       .  A
N699        O705   1.262       .  A
N699        O706   1.262       .  A
H700       C1432   1.081       .  S
C709        C710   1.407       .  A
C709        C714   1.407       .  A
C709        H719   1.084   1_554  S
C710       C2183   1.419       .  A
C710        C715   1.507       .  S
C711        C712   1.398       .  A
C711       C1446   1.414       .  A
C711        N716   1.429       .  S
C712        C713   1.401       .  A
C712        H717   1.085       .  S
C713       C1450   1.409       .  A
C714       C2185   1.414       .  A
C714        N718   1.427   1_554  S
C715        C720   1.418       .  A
C715       C2196   1.410   1_554  A
N716        O731   1.262       .  A
N716        O732   1.261       .  A
N718        O729   1.262       .  A
N718        O730   1.262       .  A
C720        C721   1.401       .  A
C720        N725   1.427       .  S
C721       C2194   1.400       .  A
C721        H726   1.083       .  S
C722        C723   1.411       .  A
C722       C1457   1.403       .  A
C723        C724   1.408       .  A
C723        N727   1.426       .  S
C724       C1451   1.406       .  A
C724        H728   1.082       .  S
N725        O735   1.262       .  A
N725        O736   1.258       .  A
N727        O733   1.262       .  A
N727        O734   1.262       .  A
C737        C739   1.574       .  S
C737        C741   1.555       .  S
C737        C740   1.567       .  S
C737        C761   1.740       .  S
C738        C742   1.576       .  S
C738        C744   1.585       .  S
C738        C743   1.577       .  S
C738        C760   1.796       .  S
C739        C747   1.398       .  A
C739       C1478   1.453       .  A
C740        C751   1.380       .  A
C740       C1479   1.444       .  A
C741        C755   1.374       .  A
C741       C1480   1.439       .  A
C742        C745   1.376       .  A
C743        C749   1.385       .  A
C744        C752   1.390       .  A
C745        N746   1.347       .  A
C745        H758   1.069       .  S
N746        N890   1.423       .  S
C747       N1482   1.350       .  A
C747        H748   1.080       .  S
C749        H759   1.078       .  S
N750       C1485   1.365       .  A
N750        C751   1.354       .  A
N750       C1458   1.447       .  S
C751        H757   1.079       .  S
C752        H754   1.078       .  S
N753       C1488   1.366       .  A
N753        C755   1.353       .  A
N753       C1430   1.454       .  S
C755        H756   1.075       .  S
C760        C762   1.591       .  S
C760        C764   1.572       .  S
C760        C763   1.577       .  S
C761        C765   1.567       .  S
C761        C767   1.577       .  S
C761        C766   1.562       .  S
C762        C770   1.389       .  A
C762        C765   1.451       .  A
C763        C774   1.384       .  A
C763        C766   1.438       .  A
C764        C778   1.385       .  A
C764        C767   1.445       .  A
C765        C768   1.395       .  A
C766        C772   1.385       .  A
C767        C775   1.382       .  A
C768        N769   1.347       .  A
C768        H781   1.080       .  S
N769        C770   1.351       .  A
N769        N913   1.424       .  S
C770        H771   1.069       .  S
C772        N773   1.358       .  A
C772        H782   1.081       .  S
N773        C774   1.362       .  A
N773       C1393   1.448       .  S
C774        H780   1.079       .  S
C775        N776   1.357       .  A
C775        H777   1.078       .  S
N776        C778   1.362       .  A
N776       C1374   1.450       .  S
C778        H779   1.078       .  S
C783        C785   1.570       .  S
C783        C787   1.590       .  S
C783        C786   1.555       .  S
C783        C806   1.767       .  S
C784       C1524   1.563       .  S
C784       C1526   1.558       .  S
C784       C1525   1.552       .  S
C784        C807   1.760       .  S
C785        C793   1.379       .  A
C785        C788   1.447       .  A
C786        C797   1.369       .  A
C786        C789   1.445       .  A
C787        C801   1.397       .  A
C787        C790   1.446       .  A
C791       C1524   1.374       .  A
C791       N1528   1.360       .  A
C791        H804   1.079       .  S
N792        C793   1.364       .  A
N792        N936   1.418       .  S
C793        H794   1.079       .  S
C795       C1525   1.368       .  A
C795       N1532   1.348       .  A
C795        H805   1.077       .  S
N796        C797   1.349       .  A
N796       C1346   1.427       .  S
C797        H803   1.078       .  S
C798       C1526   1.370       .  A
C798       N1535   1.349       .  A
C798        H800   1.068       .  S
N799        C801   1.362       .  A
N799       C1309   1.456       .  S
C801        H802   1.066       .  S
C806        C808   1.573       .  S
C806        C810   1.587       .  S
C806        C809   1.559       .  S
C807        C811   1.560       .  S
C807        C813   1.560       .  S
C807        C812   1.553       .  S
C808        C816   1.380       .  A
C808        C811   1.448       .  A
C809        C820   1.373       .  A
C809        C812   1.449       .  A
C810        C824   1.400       .  A
C810        C813   1.449       .  A
C811        C814   1.372       .  A
C812        C818   1.367       .  A
C813        C821   1.370       .  A
C814        N815   1.359       .  A
C814        H827   1.079       .  S
N815        C816   1.364       .  A
N815        N959   1.418       .  S
C816        H817   1.079       .  S
C818        N819   1.348       .  A
C818        H828   1.076       .  S
N819        C820   1.348       .  A
N819       C1253   1.424       .  S
C820        H826   1.076       .  S
C821        N822   1.348       .  A
C821        H823   1.072       .  S
N822        C824   1.362       .  A
N822       C1281   1.448       .  S
C824        H825   1.077       .  S
O829       Ni835   1.892   1_455  S
O829       C1586   1.269   1_545  A
O830       Ni853   1.894       .  S
O830        C839   1.273       .  A
O831       Ni853   1.894       .  S
O831       Ni847   2.027       .  S
O831        H854   0.949   1_565  S
C832        O849   1.284       .  A
C832        O841   1.282       .  A
C832       C1225   1.508       .  S
O833       Ni852   1.929       .  S
O833        C839   1.281       .  A
O834       Ni852   1.824       .  S
O834        C836   1.260       .  A
Ni835       O838   1.918       .  S
Ni835       O840   1.850   1_545  S
Ni835      O1567   1.879   1_545  S
C836        O846   1.236       .  A
C836        C868   1.382       .  S
O837       Ni853   1.933   1_545  S
O837        C843   1.272       .  A
O838       C1579   1.270       .  A
C839       C1337   1.474       .  S
O840        C842   1.262       .  A
O841       Ni852   1.952       .  S
C842        O848   1.287       .  A
C842        C862   1.442       .  S
C843       C1421   1.506       .  S
H844       O1581   0.942       .  S
O845       Ni853   1.914       .  S
O845       Ni847   1.955       .  S
O845       Ni852   1.869       .  S
O846       Ni847   1.823       .  S
Ni847       O851   1.952   1_655  S
Ni847       O849   1.950       .  S
O848      Ni1589   1.905       .  S
C850        O851   1.285       .  A
C850       C1197   1.481       .  S
O855       Ni861   1.930   1_455  S
O855        C876   1.276   1_545  A
O856       Ni879   1.947       .  S
O856        C865   1.286       .  A
O857       Ni861   1.876   1_565  S
O857       Ni879   1.968       .  S
O857       Ni873   2.015       .  S
O857        H880   0.947       .  S
C858        O875   1.287       .  A
C858        O867   1.273       .  A
C858       C1169   1.501       .  S
O859       Ni878   1.922       .  S
O859        C865   1.277       .  A
O860       Ni878   1.879       .  S
O860        C862   1.259       .  A
Ni861       O864   1.927       .  S
Ni861       O866   1.852   1_545  S
C862        O872   1.240       .  A
O863       Ni879   1.946   1_545  S
O863        C869   1.282       .  A
O864        C869   1.274       .  A
C865       C1290   1.507       .  S
O866        C868   1.275       .  A
O867       Ni878   1.909       .  S
C868        O874   1.261       .  A
C869       C1365   1.491       .  S
H870        O871   0.941       .  S
O871       Ni879   1.939       .  S
O871       Ni873   1.960       .  S
O871       Ni878   1.874       .  S
O872       Ni873   1.868       .  S
Ni873       O877   1.923   1_655  S
Ni873       O875   1.950       .  S
O874       Ni879   1.856       .  S
C876        O877   1.275       .  A
C876       C1141   1.487       .  S
C881        C883   1.580       .  S
C881        C885   1.572       .  S
C881        C884   1.572       .  S
C882        C886   1.581       .  S
C882        C888   1.571       .  S
C882        C887   1.576       .  S
C882        C904   1.815       .  S
C883        C891   1.398   1_455  A
C883        C886   1.450       .  A
C884        C895   1.397       .  A
C884        C887   1.450       .  A
C885        C899   1.389   1_455  A
C885        C888   1.436       .  A
C886        C889   1.379   1_455  A
C887        C893   1.376       .  A
C888        C896   1.382   1_455  A
C889        N890   1.350       .  A
C889        H902   1.067       .  S
N890        C891   1.351       .  A
H892       C1627   1.079       .  S
C893        N894   1.347       .  A
C893        H903   1.062       .  S
N894        C895   1.354       .  A
N894       C1122   1.457       .  S
C896        N897   1.361       .  A
C896        H898   1.074       .  S
N897        C899   1.359       .  A
N897       C1234   1.452       .  S
H900       C1635   1.077       .  S
H901       C1631   1.081       .  S
C904        C906   1.582   1_455  S
C904        C908   1.574       .  S
C904        C907   1.590       .  S
C905        C909   1.572   1_455  S
C905        C911   1.566       .  S
C905        C910   1.575       .  S
C905       C1617   1.738       .  S
C906        C914   1.379       .  A
C906        C909   1.452       .  A
C907        C918   1.393       .  A
C907        C910   1.448       .  A
C908        C922   1.387       .  A
C908        C911   1.441       .  A
C909        C912   1.399       .  A
C910        C916   1.387       .  A
C911        C919   1.383       .  A
C912        N913   1.351       .  A
C912        H925   1.080       .  S
N913        C914   1.348       .  A
C914        H915   1.072       .  S
C916        N917   1.348       .  A
C916        H926   1.079       .  S
N917        C918   1.351       .  A
N917       C1085   1.446       .  S
C918        H924   1.072       .  S
C919        N920   1.355       .  A
C919        H921   1.079       .  S
N920        C922   1.359       .  A
N920       C1178   1.447       .  S
C922        H923   1.078       .  S
C927        C929   1.568   1_545  S
C927        C931   1.561       .  S
C927        C930   1.573       .  S
C927        C951   1.764       .  S
C928        C932   1.561   1_545  S
C928        C934   1.568       .  S
C928        C933   1.569       .  S
C928        C950   1.766       .  S
C929        C937   1.376       .  A
C929       C1668   1.445       .  A
C930        C941   1.382       .  A
C930       C1669   1.454       .  A
C931        C945   1.377       .  A
C931       C1670   1.445       .  A
C932        C935   1.376       .  A
C933        C939   1.378       .  A
C934        C942   1.379       .  A
C935        N936   1.359       .  A
C935        H948   1.079       .  S
C937       N1672   1.362       .  A
C937        H938   1.079       .  S
C939        N940   1.351       .  A
C939        H949   1.079       .  S
N940       C1057   1.434       .  S
C941       N1676   1.356       .  A
C941        H947   1.075       .  S
C942        N943   1.356       .  A
C942        H944   1.077       .  S
N943       C1206   1.431       .  S
C945       N1679   1.353       .  A
C945        H946   1.081       .  S
C950        C952   1.563   1_545  S
C950        C954   1.568   1_545  S
C950        C953   1.561       .  S
C951        C955   1.566   1_545  S
C951        C957   1.574   1_545  S
C951        C956   1.566       .  S
C952        C960   1.376       .  A
C952        C955   1.444       .  A
C953        C964   1.370       .  A
C953        C956   1.440       .  A
C954        C968   1.375       .  A
C954        C957   1.455       .  A
C955        C958   1.376       .  A
C956        C962   1.379       .  A
C957        C965   1.385       .  A
C958        N959   1.363       .  A
C958        H971   1.079       .  S
N959        C960   1.360       .  A
C960        H961   1.079       .  S
C962        N963   1.359       .  A
C962        H972   1.068       .  S
N963        C964   1.353       .  A
N963       C1029   1.445       .  S
C964        H970   1.067       .  S
C965        N966   1.355       .  A
C965        H967   1.078       .  S
N966        C968   1.355       .  A
N966       C1150   1.440       .  S
C968        H969   1.076       .  S
O973       Ni979   1.928       .  S
O973        C994   1.278       .  A
O974       Ni997   1.949       .  S
O974        C983   1.279       .  A
O975       Ni979   1.888       .  S
O975       Ni997   1.985       .  S
O975       Ni991   1.982       .  S
C976       O1729   1.288       .  A
C976        O985   1.269       .  A
C976       C1449   1.478       .  S
O977       Ni996   1.907       .  S
O977       C1719   1.269       .  A
O978       Ni996   1.872       .  S
O978        C980   1.258       .  A
Ni979       O982   1.938       .  S
Ni979       O984   1.845       .  S
C980        O990   1.244       .  A
C980       C1012   1.468       .  S
O981       Ni997   1.907       .  S
O981        C987   1.270       .  A
O982        C987   1.278       .  A
C983       C1318   1.508       .  S
O984        C986   1.270       .  A
O985       Ni996   1.886       .  S
C986        O992   1.255       .  A
C986       C1006   1.388       .  S
C987       C1113   1.473       .  S
H988        O989   0.944       .  S
O989       Ni997   1.923       .  S
O989       Ni991   1.963       .  S
O990      Ni1727   1.868       .  S
Ni991       O995   1.902       .  S
Ni991       O993   1.952       .  S
O992       Ni997   1.853       .  S
C994        O995   1.269       .  A
C994       C1066   1.477       .  S
Ni996      O1725   1.879       .  S
H998       O1711   0.947       .  S
O999      Ni1005   1.873       .  S
O999       C1020   1.269       .  A
O1000     Ni1023   1.878       .  S
O1000      C1009   1.264       .  A
O1001     Ni1005   1.885       .  S
O1001     Ni1023   1.903       .  S
O1001     Ni1017   2.028       .  S
O1001      H1024   0.951       .  S
C1002      O1019   1.285       .  A
C1002      O1011   1.289       .  A
C1002      C1402   1.496       .  S
O1003     Ni1022   1.943       .  S
O1003      C1009   1.283       .  A
O1004     Ni1022   1.839       .  S
O1004      C1006   1.260       .  A
Ni1005     O1008   1.911       .  S
Ni1005     O1010   1.850       .  S
C1006      O1016   1.233       .  A
O1007     Ni1023   1.921       .  S
O1007      C1013   1.264       .  A
O1008      C1013   1.269       .  A
C1009      C1262   1.474       .  S
O1010      C1012   1.260       .  A
O1011     Ni1022   1.966       .  S
C1012      O1018   1.284       .  A
C1013      C1094   1.511       .  S
H1014      O1015   0.937       .  S
O1015     Ni1023   1.899       .  S
O1015     Ni1017   1.970       .  S
O1015     Ni1022   1.865       .  S
O1016     Ni1017   1.821       .  S
Ni1017     O1021   1.988       .  S
Ni1017     O1019   1.940       .  S
O1018     Ni1023   1.901       .  S
C1020      O1021   1.293       .  A
C1020      C1038   1.501       .  S
C1025      C1026   1.412       .  A
C1025      C1030   1.398       .  A
C1025      H1035   1.080       .  S
C1026      C1027   1.431       .  A
C1026      C1031   1.523       .  S
C1027      C1028   1.413       .  A
C1027      N1032   1.438       .  S
C1028      C1029   1.399       .  A
C1028      H1033   1.082       .  S
C1029      C1030   1.405       .  A
C1030      N1034   1.429       .  S
C1031      C1036   1.418       .  A
C1031      C1040   1.422       .  A
N1032      O1047   1.263       .  A
N1032      O1048   1.261       .  A
N1034      O1045   1.261       .  A
N1034      O1046   1.262       .  A
C1036      C1037   1.395       .  A
C1036      N1041   1.434       .  S
C1037      C1038   1.412       .  A
C1037      H1042   1.083       .  S
C1038      C1039   1.410       .  A
C1039      C1040   1.411       .  A
C1039      N1043   1.431       .  S
C1040      H1044   1.080       .  S
N1041      O1051   1.262       .  A
N1041      O1052   1.263       .  A
N1043      O1049   1.263       .  A
N1043      O1050   1.262       .  A
C1053      C1054   1.402       .  A
C1053      C1058   1.387       .  A
C1053      H1063   1.072       .  S
C1054      C1059   1.503       .  S
C1055      C1790   1.427       .  A
C1055      C1056   1.411       .  A
C1055      N1060   1.428       .  S
C1056      C1793   1.400       .  A
C1056      H1061   1.083       .  S
C1057      C1058   1.410       .  A
C1058      N1062   1.431       .  S
C1059      C1068   1.407       .  A
N1060      O1075   1.262       .  A
N1060      O1076   1.262       .  A
N1062      O1073   1.260       .  A
N1062      O1074   1.258       .  A
C1064      C1795   1.423       .  A
C1064      C1801   1.393       .  A
C1064      N1069   1.429       .  S
C1065      C1066   1.397       .  A
C1066      C1067   1.420       .  A
C1067      C1068   1.410       .  A
C1067      N1071   1.442       .  S
C1068      H1072   1.080       .  S
N1069      O1079   1.262       .  A
N1069      O1080   1.257       .  A
H1070      C1801   1.085       .  S
N1071      O1077   1.261       .  A
N1071      O1078   1.263       .  A
C1081      C1082   1.414       .  A
C1081      C1086   1.409       .  A
C1081      H1091   1.082       .  S
C1082      C1083   1.423       .  A
C1082      C1087   1.522       .  S
C1083      C1084   1.402       .  A
C1083      N1088   1.426       .  S
C1084      C1085   1.397       .  A
C1084      H1089   1.084       .  S
C1085      C1086   1.408       .  A
C1086      N1090   1.428       .  S
C1087      C1092   1.425       .  A
C1087      C1096   1.408       .  A
N1088      O1103   1.261       .  A
N1088      O1104   1.259       .  A
N1090      O1101   1.262       .  A
N1090      O1102   1.262       .  A
C1092      C1093   1.414       .  A
C1092      N1097   1.434       .  S
C1093      C1094   1.406       .  A
C1093      H1098   1.081       .  S
C1094      C1095   1.419       .  A
C1095      C1096   1.409       .  A
C1095      N1099   1.430       .  S
C1096      H1100   1.078       .  S
N1097      O1107   1.262       .  A
N1097      O1108   1.262       .  A
N1099      O1105   1.261       .  A
N1099      O1106   1.261       .  A
C1109      C1110   1.417       .  A
C1109      C1114   1.399       .  A
C1110      C1111   1.426       .  A
C1110      C1115   1.519       .  S
C1111      C1112   1.405       .  A
C1111      N1116   1.431       .  S
C1112      C1113   1.398       .  A
C1112      H1117   1.084       .  S
C1113      C1114   1.402       .  A
C1114      N1118   1.432       .  S
C1115      C1120   1.425       .  A
C1115      C1124   1.410       .  A
N1116      O1131   1.260       .  A
N1116      O1132   1.262       .  A
N1118      O1130   1.262       .  A
H1119      C1845   1.080       .  S
C1120      C1121   1.417       .  A
C1121      C1122   1.404       .  A
C1122      C1123   1.414       .  A
C1123      C1124   1.402       .  A
C1123      N1127   1.429       .  S
C1124      H1128   1.082       .  S
N1125      C1856   1.430       .  S
N1125      O1135   1.263       .  A
N1125      O1136   1.262       .  A
H1126      C1857   1.083       .  S
N1127      O1133   1.261       .  A
N1127      O1134   1.262       .  A
O1129      N1854   1.262       .  A
C1137      C1138   1.404       .  A
C1137      C1142   1.401       .  A
C1137      H1147   1.078   1_565  S
C1138      C1139   1.417       .  A
C1138      C1143   1.501       .  S
C1139      C1140   1.404       .  A
C1139      N1144   1.428       .  S
C1140      C1141   1.403       .  A
C1140      H1145   1.084       .  S
C1141      C1142   1.413       .  A
C1142      N1146   1.430   1_565  S
C1143      C1148   1.418       .  A
C1143      C1152   1.410       .  A
N1144      O1159   1.262       .  A
N1144      O1160   1.260       .  A
N1146      O1157   1.261       .  A
N1146      O1158   1.262       .  A
C1148      C1149   1.399       .  A
C1148      N1153   1.429   1_565  S
C1149      C1150   1.401       .  A
C1149      H1154   1.083   1_565  S
C1150      C1151   1.404       .  A
C1151      C1152   1.406       .  A
C1151      N1155   1.426       .  S
C1152      H1156   1.080       .  S
N1153      O1163   1.262       .  A
N1153      O1164   1.260       .  A
N1155      O1161   1.262       .  A
N1155      O1162   1.261       .  A
C1165      C1166   1.411   1_655  A
C1165      C1170   1.404       .  A
C1165      H1175   1.084       .  S
C1166      C1167   1.421       .  A
C1166      C1171   1.514       .  S
C1167      C1168   1.407       .  A
C1167      N1172   1.424       .  S
C1168      C1169   1.401   1_455  A
C1168      H1173   1.084       .  S
C1169      C1170   1.422       .  A
C1170      N1174   1.433       .  S
C1171      C1176   1.426       .  A
C1171      C1180   1.408   1_455  A
N1172      O1187   1.258       .  A
N1172      O1188   1.262       .  A
N1174      O1185   1.261       .  A
N1174      O1186   1.261       .  A
C1176      C1177   1.412       .  A
C1176      N1181   1.427       .  S
C1177      C1178   1.399       .  A
C1177      H1182   1.083       .  S
C1178      C1179   1.413       .  A
C1179      C1180   1.404   1_455  A
C1179      N1183   1.431   1_455  S
C1180      H1184   1.084       .  S
N1181      O1191   1.262       .  A
N1181      O1192   1.260       .  A
N1183      O1189   1.262       .  A
N1183      O1190   1.262       .  A
C1193      C1194   1.396   1_545  A
C1193      C1198   1.389       .  A
C1193      H1203   1.081       .  S
C1195      C1930   1.417       .  A
C1195      C1196   1.404       .  A
C1195      N1200   1.429       .  S
C1196      C1933   1.403       .  A
C1196      H1201   1.084       .  S
C1197      C1198   1.419   1_565  A
C1198      N1202   1.431       .  S
C1199      C1940   1.423   1_565  A
C1199      C1208   1.401       .  A
C1199      C1930   1.493       .  S
N1200      O1215   1.260       .  A
N1200      O1216   1.261       .  A
N1202      O1213   1.262       .  A
N1202      O1214   1.260       .  A
C1204      C1205   1.399       .  A
C1205      C1206   1.393       .  A
C1205      H1210   1.084       .  S
C1206      C1207   1.410   1_545  A
C1207      N1211   1.428       .  S
C1208      C1943   1.398       .  A
C1208      H1212   1.080       .  S
N1209      C1940   1.431       .  S
N1209      O1955   1.262       .  A
N1209      O1220   1.260       .  A
N1211      O1217   1.261       .  A
O1218      N1947   1.261       .  A
C1221      C1222   1.411       .  A
C1221      C1226   1.406       .  A
C1221      H1231   1.083       .  S
C1222      C1223   1.427   1_655  A
C1222      C1227   1.528       .  S
C1223      C1224   1.414   1_455  A
C1224      C1225   1.402       .  A
C1225      C1226   1.416       .  A
C1226      N1230   1.428       .  S
C1227      C1232   1.423   1_655  A
C1227      C1236   1.418       .  A
N1228      C1959   1.425   1_455  S
N1228      O1243   1.261       .  A
N1228      O1244   1.258       .  A
H1229      C1960   1.084   1_455  S
N1230      O1241   1.262       .  A
N1230      O1242   1.260       .  A
C1232      C1233   1.410       .  A
C1232      N1237   1.424       .  S
C1233      C1234   1.400   1_455  A
C1233      H1238   1.083       .  S
C1234      C1235   1.405       .  A
C1235      C1236   1.413       .  A
N1237      O1247   1.258       .  A
N1237      O1248   1.262       .  A
N1239      C1971   1.427       .  S
N1239      O1245   1.261       .  A
N1239      O1246   1.262       .  A
H1240      C1972   1.084       .  S
C1249      C1250   1.396       .  A
C1249      C1254   1.385       .  A
C1249      H1259   1.083       .  S
C1250      C1251   1.417       .  A
C1250      C1255   1.478       .  S
C1251      C1252   1.398       .  A
C1251      N1256   1.429       .  S
C1252      C1253   1.395       .  A
C1252      H1257   1.083       .  S
C1253      C1254   1.415       .  A
C1254      N1258   1.433       .  S
C1255      C1260   1.416       .  A
C1255      C1264   1.399       .  A
N1256      O1271   1.262       .  A
N1256      O1272   1.262       .  A
N1258      O1269   1.259       .  A
N1258      O1270   1.261       .  A
C1260      C1261   1.386       .  A
C1260      N1265   1.431       .  S
C1261      C1262   1.399       .  A
C1261      H1266   1.084       .  S
C1262      C1263   1.419       .  A
C1263      C1264   1.396       .  A
C1263      N1267   1.431       .  S
C1264      H1268   1.081       .  S
N1265      O1275   1.261       .  A
N1265      O1276   1.263       .  A
N1267      O1273   1.260       .  A
N1267      O1274   1.261       .  A
C1277      C1278   1.409       .  A
C1277      C1282   1.407       .  A
C1277      H1287   1.078       .  S
C1278      C1279   1.429       .  A
C1278      C1283   1.523       .  S
C1279      C1280   1.411       .  A
C1279      N1284   1.429       .  S
C1280      C1281   1.399       .  A
C1280      H1285   1.083       .  S
C1281      C1282   1.412       .  A
C1282      N1286   1.430       .  S
C1283      C1288   1.426       .  A
C1283      C1292   1.409       .  A
N1284      O1299   1.263       .  A
N1284      O1300   1.261       .  A
N1286      O1297   1.261       .  A
N1286      O1298   1.262       .  A
C1288      C1289   1.407       .  A
C1288      N1293   1.428       .  S
C1289      C1290   1.403       .  A
C1289      H1294   1.084       .  S
C1290      C1291   1.419       .  A
C1291      C1292   1.408       .  A
C1291      N1295   1.430       .  S
C1292      H1296   1.080       .  S
N1293      O1303   1.259       .  A
N1293      O1304   1.262       .  A
N1295      O1301   1.261       .  A
N1295      O1302   1.262       .  A
C1305      C2042   1.407       .  A
C1305      C1310   1.404       .  A
C1305      H1315   1.079       .  S
C1306      C1307   1.426       .  A
C1306      C1311   1.522       .  S
C1307      C1308   1.418       .  A
C1307      N1312   1.433       .  S
C1308      C1309   1.406       .  A
C1308      H1313   1.083       .  S
C1310      C2045   1.410       .  A
C1310      N1314   1.428       .  S
C1311      C1316   1.423       .  A
C1311      C1320   1.410       .  A
N1312      O1327   1.262       .  A
N1312      O1328   1.263       .  A
N1314      O1325   1.261       .  A
N1314      O1326   1.262       .  A
C1316      C1317   1.409       .  A
C1317      C1318   1.404       .  A
C1318      C1319   1.419       .  A
C1319      C1320   1.409       .  A
C1319      N1323   1.431       .  S
C1320      H1324   1.082       .  S
N1321      C2052   1.427       .  S
N1321      O1331   1.262       .  A
N1321      O2068   1.260       .  A
H1322      C2053   1.084       .  S
N1323      O1329   1.262       .  A
N1323      O1330   1.260       .  A
C1333      C1334   1.394       .  A
C1333      C1338   1.394       .  A
C1333      H1343   1.082       .  S
C1334      C1335   1.414       .  A
C1334      C1339   1.473       .  S
C1335      C1336   1.386       .  A
C1335      N1340   1.427       .  S
C1336      C1337   1.399       .  A
C1336      H1341   1.083       .  S
C1337      C1338   1.411       .  A
C1338      N1342   1.419   1_565  S
C1339      C1344   1.414       .  A
C1339      C1348   1.395       .  A
N1340      O1355   1.262       .  A
N1340      O1356   1.259       .  A
N1342      O1353   1.261       .  A
N1342      O1354   1.260       .  A
C1344      C1345   1.400       .  A
C1344      N1349   1.429   1_565  S
C1345      C1346   1.398       .  A
C1345      H1350   1.083       .  S
C1347      C2082   1.414       .  A
C1347      C2084   1.387       .  A
C1347      N1351   1.434       .  S
N1349      O1359   1.262       .  A
N1349      O1360   1.262       .  A
N1351      O1357   1.260       .  A
N1351      O1358   1.262       .  A
H1352      C2084   1.084       .  S
C1361      C1362   1.412       .  A
C1361      C1366   1.417       .  A
C1361      H1371   1.082       .  S
C1362      C1363   1.413       .  A
C1362      C1367   1.499       .  S
C1363      C1364   1.394       .  A
C1363      N1368   1.433       .  S
C1364      C1365   1.404       .  A
C1364      H1369   1.084       .  S
C1365      C1366   1.417       .  A
C1366      N1370   1.439       .  S
C1367      C1372   1.414       .  A
C1367      C1376   1.404       .  A
N1368      O1383   1.261   1_655  A
N1368      O1384   1.262       .  A
N1370      O1381   1.263       .  A
N1370      O1382   1.263       .  A
C1372      C1373   1.407       .  A
C1372      N1377   1.431       .  S
C1373      C1374   1.408       .  A
C1373      H1378   1.082       .  S
C1374      C1375   1.410       .  A
C1375      C1376   1.404       .  A
C1375      N1379   1.427       .  S
C1376      H1380   1.081       .  S
N1377      O1387   1.262       .  A
N1377      O1388   1.260       .  A
N1379      O1385   1.262   1_655  A
N1379      O1386   1.262       .  A
C1389      C1390   1.417       .  A
C1389      C1394   1.417       .  A
C1389      H1399   1.079       .  S
C1390      C1391   1.429       .  A
C1390      C1395   1.527       .  S
C1391      C1392   1.402       .  A
C1391      N1396   1.428       .  S
C1392      C1393   1.394       .  A
C1392      H1397   1.084       .  S
C1393      C1394   1.406       .  A
C1394      N1398   1.428       .  S
C1395      C1400   1.431       .  A
C1395      C1404   1.410       .  A
N1396      O1411   1.262       .  A
N1396      O1412   1.260       .  A
N1398      O1409   1.262       .  A
N1398      O1410   1.262       .  A
C1400      C1401   1.412       .  A
C1400      N1405   1.431       .  S
C1401      C1402   1.400       .  A
C1401      H1406   1.084       .  S
C1402      C1403   1.413       .  A
C1403      C1404   1.407       .  A
C1403      N1407   1.431       .  S
C1404      H1408   1.079       .  S
N1405      O1415   1.262       .  A
N1405      O1416   1.262       .  A
N1407      O1413   1.261       .  A
N1407      O1414   1.262       .  A
C1417      C2154   1.409       .  A
C1417      C1422   1.412       .  A
C1417      H1427   1.083       .  S
C1418      C1419   1.418       .  A
C1418      C1423   1.515       .  S
C1419      C1420   1.406       .  A
C1419      N1424   1.431       .  S
C1420      C1421   1.400       .  A
C1420      H1425   1.072       .  S
C1422      C2157   1.417       .  A
C1422      N1426   1.430       .  S
C1423      C1428   1.419       .  A
C1423      C1432   1.409       .  A
N1424      O1439   1.262       .  A
N1424      O1440   1.262       .  A
N1426      O1437   1.262       .  A
N1426      O1438   1.260       .  A
C1428      C1429   1.408       .  A
C1428      N1433   1.429       .  S
C1429      H1434   1.082       .  S
C1430      C2165   1.409       .  A
C1430      C1431   1.415       .  A
C1431      C2168   1.405       .  A
C1431      N1435   1.428       .  S
N1433      O1443   1.262       .  A
N1433      O1444   1.260       .  A
N1435      O1441   1.262       .  A
N1435      O1442   1.261       .  A
H1436      C2168   1.082       .  S
C1445      C1446   1.410       .  A
C1445      C1450   1.408       .  A
C1445      H1455   1.084       .  S
C1446      C1451   1.498       .  S
C1447      C2182   1.416       .  A
C1447      C1448   1.402       .  A
C1447      N1452   1.431       .  S
C1448      C1449   1.403       .  A
C1448      H1453   1.085       .  S
C1449      C2186   1.408       .  A
C1450      N1454   1.429       .  S
C1451      C1456   1.411       .  A
N1452      O1467   1.262       .  A
N1452      O1468   1.262       .  A
N1454      O1465   1.261       .  A
N1454      O1466   1.261       .  A
C1456      C1457   1.400       .  A
C1456      N1461   1.424       .  S
C1457      H1462   1.083       .  S
C1458      C2193   1.401       .  A
C1458      C1459   1.414       .  A
C1459      C1460   1.412       .  A
C1459      N1463   1.428       .  S
C1460      C2187   1.407       .  A
C1460      H1464   1.082       .  S
N1461      O1471   1.261       .  A
N1461      O1472   1.257       .  A
N1463      O1469   1.262       .  A
N1463      O1470   1.262       .  A
C1473      C1475   1.571       .  S
C1473      C1477   1.558       .  S
C1473      C1476   1.574       .  S
C1473      C1497   1.739       .  S
C1474      C1478   1.577       .  S
C1474      C1480   1.584       .  S
C1474      C1479   1.581       .  S
C1474      C1496   1.798       .  S
C1475      C1483   1.398       .  A
C1476      C1487   1.386       .  A
C1477      C1491   1.379       .  A
C1478      C1481   1.374       .  A
C1479      C1485   1.388       .  A
C1480      C1488   1.392       .  A
C1481      N1482   1.346       .  A
C1481      H1494   1.069       .  S
N1482      N1626   1.422       .  S
C1483      H1484   1.080       .  S
C1485      H1495   1.079       .  S
N1486      C1487   1.358   1_554  A
N1486      C2194   1.447       .  S
C1487      H1493   1.080       .  S
C1488      H1490   1.077       .  S
N1489      C1491   1.355   1_554  A
N1489      C2166   1.453       .  S
C1491      H1492   1.078       .  S
C1496      C1498   1.592       .  S
C1496      C1500   1.575       .  S
C1496      C1499   1.574       .  S
C1497      C1501   1.572       .  S
C1497      C1503   1.571       .  S
C1497      C1502   1.558       .  S
C1498      C1506   1.387       .  A
C1498      C1501   1.454       .  A
C1499      C1510   1.382       .  A
C1499      C1502   1.437       .  A
C1500      C1514   1.386       .  A
C1500      C1503   1.445       .  A
C1501      C1504   1.399       .  A
C1502      C1508   1.381       .  A
C1503      C1511   1.377       .  A
C1504      N1505   1.350       .  A
C1504      H1517   1.080       .  S
N1505      C1506   1.350       .  A
N1505      N1649   1.426       .  S
C1506      H1507   1.068       .  S
C1508      N1509   1.357       .  A
C1508      H1518   1.081       .  S
N1509      C1510   1.362       .  A
N1509      C2129   1.444       .  S
C1510      H1516   1.080       .  S
C1511      N1512   1.354       .  A
C1511      H1513   1.078       .  S
N1512      C1514   1.363       .  A
N1512      C2110   1.448       .  S
C1514      H1515   1.078       .  S
C1519      C1521   1.572       .  S
C1519      C1523   1.591       .  S
C1519      C1522   1.559       .  S
C1519      C1542   1.770       .  S
C1520      C1543   1.764       .  S
C1521      C1529   1.379       .  A
C1521      C1524   1.449       .  A
C1522      C1533   1.372       .  A
C1522      C1525   1.447       .  A
C1523      C1537   1.401       .  A
C1523      C1526   1.447       .  A
C1527      H1540   1.079       .  S
N1528      C1529   1.363       .  A
N1528      N1672   1.418       .  S
C1529      H1530   1.079       .  S
C1531      H1541   1.076       .  S
N1532      C1533   1.350       .  A
N1532      C2082   1.424       .  S
C1533      H1539   1.077       .  S
C1534      H1536   1.068       .  S
N1535      C1537   1.363       .  A
N1535      C2045   1.451       .  S
C1537      H1538   1.073       .  S
C1542      C1544   1.571       .  S
C1542      C1546   1.586       .  S
C1542      C1545   1.555       .  S
C1543      C1547   1.565       .  S
C1543      C1549   1.558       .  S
C1543      C1548   1.554       .  S
C1544      C1552   1.378       .  A
C1544      C1547   1.450       .  A
C1545      C1556   1.369       .  A
C1545      C1548   1.449       .  A
C1546      C1560   1.398       .  A
C1546      C1549   1.450       .  A
C1547      C1550   1.374       .  A
C1548      C1554   1.368       .  A
C1549      C1557   1.368       .  A
C1550      N1551   1.360       .  A
C1550      H1563   1.079       .  S
N1551      C1552   1.363       .  A
N1551      N1695   1.418       .  S
C1552      H1553   1.079       .  S
C1554      N1555   1.349       .  A
C1554      H1564   1.075       .  S
N1555      C1556   1.346       .  A
N1555      C1989   1.423       .  S
C1556      H1562   1.077       .  S
C1557      N1558   1.347       .  A
C1557      H1559   1.070       .  S
N1558      C1560   1.360       .  A
N1558      C2017   1.446       .  S
C1560      H1561   1.071       .  S
O1565     Ni1571   1.891   1_455  S
O1566     Ni1589   1.894       .  S
O1566      C1575   1.272       .  A
O1567     Ni1589   1.895       .  S
O1567     Ni1583   2.018       .  S
O1567      H1590   0.949   1_565  S
C1568      O1585   1.282       .  A
C1568      O1577   1.289       .  A
C1568      C1961   1.515       .  S
O1569     Ni1588   1.942       .  S
O1569      C1575   1.284       .  A
O1570     Ni1588   1.841       .  S
O1570      C1572   1.261       .  A
Ni1571     O1574   1.918   1_554  S
Ni1571     O1576   1.851   1_544  S
C1572      O1582   1.235       .  A
C1572      C1604   1.387       .  S
O1573     Ni1589   1.921   1_545  S
O1573      C1579   1.270       .  A
C1575      C2073   1.483       .  S
O1576      C1578   1.263       .  A
O1577     Ni1588   1.970       .  S
C1578      O1584   1.288       .  A
C1578      C1598   1.440       .  S
C1579      C2157   1.498       .  S
O1581     Ni1589   1.907       .  S
O1581     Ni1583   1.958       .  S
O1581     Ni1588   1.865       .  S
O1582     Ni1583   1.815       .  S
Ni1583     O1587   1.960   1_655  S
Ni1583     O1585   1.942       .  S
C1586      O1587   1.287       .  A
C1586      C1933   1.485       .  S
O1591     Ni1597   1.940   1_455  S
O1591      C1612   1.277   1_545  A
O1592     Ni1615   1.944       .  S
O1592      C1601   1.286       .  A
O1593     Ni1597   1.876   1_565  S
O1593     Ni1615   1.971       .  S
O1593     Ni1609   2.015       .  S
O1593      H1616   0.947       .  S
C1594      O1611   1.285       .  A
C1594      O1603   1.272       .  A
C1594      C1905   1.502       .  S
O1595     Ni1614   1.923       .  S
O1595      C1601   1.277       .  A
O1596     Ni1614   1.880       .  S
O1596      C1598   1.259       .  A
Ni1597     O1600   1.929       .  S
Ni1597     O1602   1.857   1_545  S
C1598      O1608   1.241       .  A
O1599     Ni1615   1.955   1_545  S
O1599      C1605   1.285       .  A
O1600      C1605   1.275       .  A
C1601      C2026   1.505       .  S
O1602      C1604   1.278       .  A
O1603     Ni1614   1.907       .  S
C1604      O1610   1.257       .  A
C1605      C2101   1.494       .  S
H1606      O1607   0.940       .  S
O1607     Ni1615   1.947       .  S
O1607     Ni1609   1.960       .  S
O1607     Ni1614   1.879       .  S
O1608     Ni1609   1.870       .  S
Ni1609     O1613   1.921   1_655  S
Ni1609     O1611   1.950       .  S
O1610     Ni1615   1.853       .  S
C1612      O1613   1.273       .  A
C1612      C1877   1.495       .  S
C1617      C1619   1.575       .  S
C1617      C1621   1.578       .  S
C1617      C1620   1.579       .  S
C1618      C1622   1.580       .  S
C1618      C1624   1.577       .  S
C1618      C1623   1.577       .  S
C1618      C1640   1.822       .  S
C1619      C1627   1.395   1_455  A
C1619      C1622   1.448       .  A
C1620      C1631   1.401       .  A
C1620      C1623   1.449       .  A
C1621      C1635   1.393   1_455  A
C1621      C1624   1.439       .  A
C1622      C1625   1.378   1_455  A
C1623      C1629   1.376       .  A
C1624      C1632   1.385   1_455  A
C1625      N1626   1.351       .  A
C1625      H1638   1.067       .  S
N1626      C1627   1.349       .  A
C1629      N1630   1.347       .  A
C1629      H1639   1.061       .  S
N1630      C1631   1.356       .  A
N1630      C1858   1.463       .  S
C1632      N1633   1.363       .  A
C1632      H1634   1.074       .  S
N1633      C1635   1.360       .  A
N1633      C1970   1.458       .  S
C1640      C1642   1.585   1_455  S
C1640      C1644   1.573       .  S
C1640      C1643   1.588       .  S
C1641      C1645   1.571   1_455  S
C1641      C1647   1.573       .  S
C1641      C1646   1.574       .  S
C1642      C1650   1.379       .  A
C1642      C1645   1.449       .  A
C1643      C1654   1.393       .  A
C1643      C1646   1.451       .  A
C1644      C1658   1.385       .  A
C1644      C1647   1.443       .  A
C1645      C1648   1.399       .  A
C1646      C1652   1.386       .  A
C1647      C1655   1.384       .  A
C1648      N1649   1.352       .  A
C1648      H1661   1.080       .  S
N1649      C1650   1.350       .  A
C1650      H1651   1.070       .  S
C1652      N1653   1.347       .  A
C1652      H1662   1.079       .  S
N1653      C1654   1.348       .  A
N1653      C1821   1.446       .  S
C1654      H1660   1.073       .  S
C1655      N1656   1.357       .  A
C1655      H1657   1.079       .  S
N1656      C1658   1.359       .  A
N1656      C1914   1.447       .  S
C1658      H1659   1.078       .  S
C1663      C1665   1.567   1_545  S
C1663      C1667   1.560       .  S
C1663      C1666   1.569       .  S
C1663      C1687   1.761       .  S
C1664      C1668   1.560   1_545  S
C1664      C1670   1.570       .  S
C1664      C1669   1.565       .  S
C1664      C1686   1.759       .  S
C1665      C1673   1.376       .  A
C1666      C1677   1.379       .  A
C1667      C1681   1.376       .  A
C1668      C1671   1.376       .  A
C1669      C1675   1.377       .  A
C1670      C1678   1.379       .  A
C1671      N1672   1.360       .  A
C1671      H1684   1.079       .  S
C1673      H1674   1.079       .  S
C1675      N1676   1.350       .  A
C1675      H1685   1.080       .  S
N1676      C1793   1.437       .  S
C1677      H1683   1.076       .  S
C1678      N1679   1.357       .  A
C1678      H1680   1.078       .  S
N1679      C1942   1.435       .  S
C1681      H1682   1.081       .  S
C1686      C1688   1.562       .  S
C1686      C1690   1.566   1_545  S
C1686      C1689   1.559       .  S
C1687      C1691   1.565       .  S
C1687      C1693   1.575   1_545  S
C1687      C1692   1.572       .  S
C1688      C1696   1.375   1_545  A
C1688      C1691   1.442       .  A
C1689      C1700   1.371       .  A
C1689      C1692   1.441       .  A
C1690      C1704   1.375       .  A
C1690      C1693   1.453       .  A
C1691      C1694   1.376   1_545  A
C1692      C1698   1.384       .  A
C1693      C1701   1.385       .  A
C1694      N1695   1.363       .  A
C1694      H1707   1.079       .  S
N1695      C1696   1.361       .  A
C1696      H1697   1.079       .  S
C1698      N1699   1.360       .  A
C1698      H1708   1.071       .  S
N1699      C1700   1.352       .  A
N1699      C1765   1.445       .  S
C1700      H1706   1.069       .  S
C1701      N1702   1.355       .  A
C1701      H1703   1.078       .  S
N1702      C1704   1.355       .  A
N1702      C1886   1.442       .  S
C1704      H1705   1.075       .  S
O1709     Ni1715   1.935       .  S
O1709      C1730   1.281       .  A
O1710     Ni1733   1.944       .  S
O1710      C1719   1.279       .  A
O1711     Ni1715   1.885       .  S
O1711     Ni1733   1.988       .  S
O1711     Ni1727   1.997       .  S
C1712      O1721   1.270   1_554  A
C1712      C2185   1.484       .  S
O1713     Ni1732   1.920       .  S
O1714     Ni1732   1.878       .  S
O1714      C1716   1.256       .  A
Ni1715     O1718   1.946       .  S
Ni1715     O1720   1.834       .  S
C1716      O1726   1.246       .  A
C1716      C1748   1.461       .  S
O1717     Ni1733   1.916       .  S
O1717      C1723   1.272       .  A
O1718      C1723   1.279       .  A
C1719      C2054   1.502       .  S
O1720      C1722   1.270       .  A
O1721     Ni1732   1.892       .  S
C1722      O1728   1.256       .  A
C1722      C1742   1.385       .  S
C1723      C1849   1.489       .  S
H1724      O1725   0.939       .  S
O1725     Ni1733   1.928       .  S
O1725     Ni1727   1.965       .  S
Ni1727     O1731   1.912       .  S
Ni1727     O1729   1.964       .  S
O1728     Ni1733   1.853       .  S
C1730      O1731   1.272       .  A
C1730      C1802   1.486       .  S
O1735     Ni1741   1.877       .  S
O1735      C1756   1.270       .  A
O1736     Ni1759   1.876       .  S
O1736      C1745   1.264       .  A
O1737     Ni1741   1.883       .  S
O1737     Ni1759   1.899       .  S
O1737     Ni1753   2.021       .  S
O1737      H1760   0.951       .  S
C1738      O1755   1.285       .  A
C1738      O1747   1.287       .  A
C1738      C2138   1.495       .  S
O1739     Ni1758   1.937       .  S
O1739      C1745   1.282       .  A
O1740     Ni1758   1.836       .  S
O1740      C1742   1.259       .  A
Ni1741     O1744   1.911       .  S
Ni1741     O1746   1.844       .  S
C1742      O1752   1.236       .  A
O1743     Ni1759   1.921       .  S
O1743      C1749   1.264       .  A
O1744      C1749   1.269       .  A
C1745      C1998   1.474       .  S
O1746      C1748   1.259       .  A
O1747     Ni1758   1.962       .  S
C1748      O1754   1.286       .  A
C1749      C1830   1.508       .  S
H1750      O1751   0.940       .  S
O1751     Ni1759   1.904       .  S
O1751     Ni1753   1.969       .  S
O1751     Ni1758   1.873       .  S
O1752     Ni1753   1.826       .  S
Ni1753     O1757   1.978       .  S
Ni1753     O1755   1.944       .  S
O1754     Ni1759   1.905       .  S
C1756      O1757   1.292       .  A
C1756      C1774   1.500       .  S
C1761      C1762   1.413       .  A
C1761      C1766   1.398       .  A
C1761      H1771   1.081       .  S
C1762      C1763   1.431       .  A
C1762      C1767   1.521       .  S
C1763      C1764   1.413       .  A
C1763      N1768   1.438       .  S
C1764      C1765   1.399       .  A
C1764      H1769   1.083       .  S
C1765      C1766   1.404       .  A
C1766      N1770   1.427       .  S
C1767      C1772   1.417       .  A
C1767      C1776   1.420       .  A
N1768      O1783   1.263       .  A
N1768      O1784   1.261       .  A
N1770      O1781   1.260       .  A
N1770      O1782   1.262       .  A
C1772      C1773   1.395       .  A
C1772      N1777   1.433       .  S
C1773      C1774   1.412       .  A
C1773      H1778   1.083       .  S
C1774      C1775   1.413       .  A
C1775      C1776   1.412       .  A
C1775      N1779   1.438       .  S
C1776      H1780   1.080       .  S
N1777      O1787   1.262       .  A
N1777      O1788   1.263       .  A
N1779      O1785   1.263       .  A
N1779      O1786   1.263       .  A
C1789      C1790   1.403       .  A
C1789      C1794   1.390       .  A
C1789      H1799   1.072       .  S
C1790      C1795   1.513       .  S
C1791      C1792   1.409       .  A
C1791      N1796   1.430   1_554  S
C1792      H1797   1.083       .  S
C1793      C1794   1.408       .  A
C1794      N1798   1.430       .  S
C1795      C1804   1.408       .  A
N1796      O1811   1.262   1_556  A
N1796      O1812   1.262       .  A
N1798      O1809   1.260       .  A
N1798      O1810   1.259       .  A
C1800      N1805   1.429   1_554  S
C1801      C1802   1.398       .  A
C1802      C1803   1.422       .  A
C1803      C1804   1.412       .  A
C1803      N1807   1.441       .  S
C1804      H1808   1.077       .  S
N1805      O1815   1.262       .  A
N1805      O1816   1.258       .  A
N1807      O1813   1.261       .  A
N1807      O1814   1.263       .  A
C1817      C1818   1.413       .  A
C1817      C1822   1.407       .  A
C1817      H1827   1.083       .  S
C1818      C1819   1.422       .  A
C1818      C1823   1.519       .  S
C1819      C1820   1.406       .  A
C1819      N1824   1.427       .  S
C1820      C1821   1.401       .  A
C1820      H1825   1.083       .  S
C1821      C1822   1.406       .  A
C1822      N1826   1.428       .  S
C1823      C1828   1.423       .  A
C1823      C1832   1.409       .  A
N1824      O1839   1.260       .  A
N1824      O1840   1.261       .  A
N1826      O1837   1.262       .  A
N1826      O1838   1.261       .  A
C1828      C1829   1.410       .  A
C1828      N1833   1.433       .  S
C1829      C1830   1.404       .  A
C1829      H1834   1.080       .  S
C1830      C1831   1.420       .  A
C1831      C1832   1.411       .  A
C1831      N1835   1.431       .  S
C1832      H1836   1.079       .  S
N1833      O1843   1.262       .  A
N1833      O1844   1.262       .  A
N1835      O1841   1.260       .  A
N1835      O1842   1.261       .  A
C1845      C1846   1.417       .  A
C1845      C1850   1.399       .  A
C1846      C1847   1.428       .  A
C1846      C1851   1.530       .  S
C1847      C1848   1.412       .  A
C1847      N1852   1.432       .  S
C1848      C1849   1.404       .  A
C1848      H1853   1.084       .  S
C1849      C1850   1.405       .  A
C1850      N1854   1.431       .  S
C1851      C1856   1.428       .  A
C1851      C1860   1.411       .  A
N1852      O1867   1.260       .  A
N1852      O1868   1.262       .  A
N1854      O1866   1.262       .  A
C1856      C1857   1.421       .  A
C1857      C1858   1.405       .  A
C1858      C1859   1.416       .  A
C1859      C1860   1.403       .  A
C1859      N1863   1.429       .  S
C1860      H1864   1.082       .  S
N1861      O1871   1.263       .  A
N1861      O1872   1.263       .  A
N1863      O1869   1.261       .  A
N1863      O1870   1.262       .  A
C1873      C1874   1.406       .  A
C1873      C1878   1.404       .  A
C1873      H1883   1.079   1_565  S
C1874      C1875   1.418       .  A
C1874      C1879   1.507       .  S
C1875      C1876   1.406       .  A
C1875      N1880   1.428       .  S
C1876      C1877   1.405       .  A
C1876      H1881   1.084       .  S
C1877      C1878   1.414       .  A
C1878      N1882   1.430   1_565  S
C1879      C1884   1.418       .  A
C1879      C1888   1.413       .  A
N1880      O1895   1.262       .  A
N1880      O1896   1.260       .  A
N1882      O1893   1.261       .  A
N1882      O1894   1.262       .  A
C1884      C1885   1.400       .  A
C1884      N1889   1.429   1_565  S
C1885      C1886   1.400       .  A
C1885      H1890   1.083   1_565  S
C1886      C1887   1.404       .  A
C1887      C1888   1.409       .  A
C1887      N1891   1.427       .  S
C1888      H1892   1.081       .  S
N1889      O1899   1.262       .  A
N1889      O1900   1.260       .  A
N1891      O1897   1.262       .  A
N1891      O1898   1.261       .  A
C1901      C1902   1.409   1_655  A
C1901      C1906   1.400       .  A
C1901      H1911   1.084       .  S
C1902      C1903   1.421       .  A
C1902      C1907   1.512       .  S
C1903      C1904   1.409       .  A
C1903      N1908   1.425       .  S
C1904      C1905   1.404   1_455  A
C1904      H1909   1.084       .  S
C1905      C1906   1.422       .  A
C1906      N1910   1.432       .  S
C1907      C1912   1.426       .  A
C1907      C1916   1.408   1_455  A
N1908      O1923   1.258       .  A
N1908      O1924   1.262       .  A
N1910      O1921   1.261       .  A
N1910      O1922   1.262       .  A
C1912      C1913   1.413       .  A
C1912      N1917   1.428       .  S
C1913      C1914   1.400       .  A
C1913      H1918   1.083       .  S
C1914      C1915   1.412       .  A
C1915      C1916   1.402   1_455  A
C1915      N1919   1.431   1_455  S
C1916      H1920   1.084       .  S
N1917      O1927   1.262       .  A
N1917      O1928   1.260       .  A
N1919      O1925   1.262       .  A
N1919      O1926   1.262       .  A
C1929      C1930   1.398   1_545  A
C1929      C1934   1.394       .  A
C1929      H1939   1.082       .  S
C1931      C1932   1.406       .  A
C1931      N1936   1.431   1_554  S
C1932      H1937   1.084       .  S
C1933      C1934   1.422   1_565  A
C1934      N1938   1.432       .  S
C1935      C1944   1.400       .  A
N1936      O1951   1.260       .  A
N1936      O1952   1.261   1_556  A
N1938      O1949   1.262       .  A
N1938      O1950   1.260       .  A
C1940      C1941   1.403       .  A
C1941      C1942   1.396       .  A
C1941      H1946   1.083       .  S
C1942      C1943   1.410   1_545  A
C1943      N1947   1.428       .  S
C1944      H1948   1.079       .  S
N1945      O1956   1.261       .  A
N1947      O1953   1.261       .  A
C1957      C1958   1.412       .  A
C1957      C1962   1.411       .  A
C1957      H1967   1.083       .  S
C1958      C1959   1.424       .  A
C1958      C1963   1.528       .  S
C1959      C1960   1.415       .  A
C1960      C1961   1.407       .  A
C1961      C1962   1.416       .  A
C1962      N1966   1.428       .  S
C1963      C1968   1.422   1_655  A
C1963      C1972   1.416       .  A
N1964      O1979   1.262       .  A
N1964      O1980   1.256       .  A
N1966      O1977   1.262       .  A
N1966      O1978   1.260       .  A
C1968      C1969   1.410       .  A
C1968      N1973   1.424       .  S
C1969      C1970   1.401   1_455  A
C1969      H1974   1.083       .  S
C1970      C1971   1.411       .  A
C1971      C1972   1.417       .  A
N1973      O1983   1.257       .  A
N1973      O1984   1.262       .  A
N1975      O1981   1.262   1_556  A
N1975      O1982   1.262       .  A
C1985      C1986   1.395       .  A
C1985      C1990   1.387       .  A
C1985      H1995   1.082       .  S
C1986      C1987   1.415       .  A
C1986      C1991   1.473       .  S
C1987      C1988   1.395       .  A
C1987      N1992   1.428       .  S
C1988      C1989   1.394       .  A
C1988      H1993   1.083       .  S
C1989      C1990   1.416       .  A
C1990      N1994   1.435       .  S
C1991      C1996   1.413       .  A
C1991      C2000   1.397       .  A
N1992      O2007   1.262       .  A
N1992      O2008   1.261       .  A
N1994      O2005   1.260       .  A
N1994      O2006   1.263       .  A
C1996      C1997   1.386       .  A
C1996      N2001   1.430       .  S
C1997      C1998   1.401       .  A
C1997      H2002   1.084       .  S
C1998      C1999   1.421       .  A
C1999      C2000   1.395       .  A
C1999      N2003   1.434       .  S
C2000      H2004   1.082       .  S
N2001      O2011   1.260       .  A
N2001      O2012   1.262       .  A
N2003      O2009   1.260       .  A
N2003      O2010   1.262       .  A
C2013      C2014   1.409       .  A
C2013      C2018   1.407       .  A
C2013      H2023   1.080       .  S
C2014      C2015   1.426       .  A
C2014      C2019   1.518       .  S
C2015      C2016   1.409       .  A
C2015      N2020   1.428       .  S
C2016      C2017   1.398       .  A
C2016      H2021   1.083       .  S
C2017      C2018   1.412       .  A
C2018      N2022   1.429       .  S
C2019      C2024   1.423       .  A
C2019      C2028   1.409       .  A
N2020      O2035   1.262       .  A
N2020      O2036   1.261       .  A
N2022      O2033   1.262       .  A
N2022      O2034   1.261       .  A
C2024      C2025   1.405       .  A
C2024      N2029   1.428       .  S
C2025      C2026   1.403       .  A
C2025      H2030   1.084       .  S
C2026      C2027   1.420       .  A
C2027      C2028   1.409       .  A
C2027      N2031   1.431       .  S
C2028      H2032   1.080       .  S
N2029      O2039   1.260       .  A
N2029      O2040   1.262       .  A
N2031      O2037   1.261       .  A
N2031      O2038   1.262       .  A
C2041      C2046   1.406       .  A
C2041      H2051   1.081       .  S
C2042      C2043   1.428       .  A
C2042      C2047   1.522       .  S
C2043      C2044   1.416       .  A
C2043      N2048   1.432       .  S
C2044      C2045   1.403       .  A
C2044      H2049   1.083       .  S
C2046      N2050   1.430       .  S
C2047      C2052   1.424       .  A
C2047      C2056   1.412       .  A
N2048      O2063   1.263       .  A
N2048      O2064   1.262       .  A
N2050      O2061   1.262       .  A
N2050      O2062   1.262   1_556  A
C2052      C2053   1.403       .  A
C2053      C2054   1.399       .  A
C2054      C2055   1.418       .  A
C2055      C2056   1.410       .  A
C2055      N2059   1.431       .  S
C2056      H2060   1.081       .  S
N2057      O2067   1.262       .  A
N2059      O2065   1.262       .  A
N2059      O2066   1.261       .  A
C2069      C2070   1.397       .  A
C2069      C2074   1.400       .  A
C2069      H2079   1.083       .  S
C2070      C2071   1.412       .  A
C2070      C2075   1.476       .  S
C2071      C2072   1.387       .  A
C2071      N2076   1.430       .  S
C2072      C2073   1.402       .  A
C2072      H2077   1.083       .  S
C2073      C2074   1.418       .  A
C2074      N2078   1.426   1_565  S
C2075      C2080   1.413       .  A
C2075      C2084   1.397       .  A
N2076      O2091   1.262       .  A
N2076      O2092   1.260       .  A
N2078      O2089   1.261       .  A
N2078      O2090   1.260       .  A
C2080      C2081   1.398       .  A
C2080      N2085   1.427   1_565  S
C2081      C2082   1.395       .  A
C2081      H2086   1.083       .  S
C2083      N2087   1.434       .  S
N2085      O2095   1.262       .  A
N2085      O2096   1.262       .  A
N2087      O2093   1.260       .  A
N2087      O2094   1.262   1_554  A
C2097      C2098   1.412       .  A
C2097      C2102   1.413       .  A
C2097      H2107   1.082       .  S
C2098      C2099   1.413       .  A
C2098      C2103   1.502       .  S
C2099      C2100   1.397       .  A
C2099      N2104   1.432       .  S
C2100      C2101   1.404       .  A
C2100      H2105   1.084       .  S
C2101      C2102   1.412       .  A
C2102      N2106   1.428       .  S
C2103      C2108   1.415       .  A
C2103      C2112   1.406       .  A
N2104      O2119   1.262   1_655  A
N2104      O2120   1.261       .  A
N2106      O2117   1.262       .  A
N2106      O2118   1.260       .  A
C2108      C2109   1.406       .  A
C2108      N2113   1.430       .  S
C2109      C2110   1.406       .  A
C2109      H2114   1.082       .  S
C2110      C2111   1.410       .  A
C2111      C2112   1.404       .  A
C2111      N2115   1.427       .  S
C2112      H2116   1.081       .  S
N2113      O2123   1.262       .  A
N2113      O2124   1.260       .  A
N2115      O2121   1.262   1_655  A
N2115      O2122   1.262       .  A
C2125      C2126   1.416       .  A
C2125      C2130   1.415       .  A
C2125      H2135   1.079       .  S
C2126      C2127   1.429       .  A
C2126      C2131   1.525       .  S
C2127      C2128   1.400       .  A
C2127      N2132   1.427       .  S
C2128      C2129   1.393       .  A
C2128      H2133   1.084       .  S
C2129      C2130   1.405       .  A
C2130      N2134   1.427       .  S
C2131      C2136   1.431       .  A
C2131      C2140   1.408       .  A
N2132      O2147   1.263       .  A
N2132      O2148   1.260       .  A
N2134      O2145   1.262       .  A
N2134      O2146   1.262       .  A
C2136      C2137   1.414       .  A
C2136      N2141   1.431       .  S
C2137      C2138   1.402       .  A
C2137      H2142   1.084       .  S
C2138      C2139   1.410       .  A
C2139      C2140   1.405       .  A
C2139      N2143   1.429       .  S
C2140      H2144   1.079       .  S
N2141      O2151   1.262       .  A
N2141      O2152   1.262       .  A
N2143      O2149   1.261       .  A
N2143      O2150   1.262       .  A
C2153      C2158   1.411       .  A
C2153      H2163   1.082       .  S
C2154      C2155   1.413       .  A
C2154      C2159   1.500       .  S
C2155      C2156   1.399       .  A
C2155      N2160   1.431       .  S
C2156      C2157   1.402       .  A
C2156      H2161   1.077       .  S
C2158      N2162   1.430       .  S
C2159      C2164   1.415       .  A
C2159      C2168   1.402       .  A
N2160      O2175   1.262       .  A
N2160      O2176   1.261       .  A
N2162      O2173   1.262   1_556  A
N2162      O2174   1.260       .  A
C2164      C2165   1.410       .  A
C2164      N2169   1.430       .  S
C2165      H2170   1.083       .  S
C2166      C2167   1.412   1_554  A
C2167      N2171   1.427       .  S
N2169      O2179   1.262       .  A
N2169      O2180   1.260       .  A
N2171      O2177   1.262       .  A
N2171      O2178   1.261       .  A
C2181      C2182   1.410       .  A
C2181      C2186   1.407       .  A
C2181      H2191   1.083       .  S
C2182      C2187   1.502       .  S
C2183      C2184   1.403       .  A
C2183      N2188   1.430       .  S
C2184      C2185   1.403       .  A
C2184      H2189   1.085       .  S
C2186      N2190   1.427       .  S
C2187      C2192   1.412       .  A
N2188      O2203   1.262       .  A
N2188      O2204   1.261       .  A
N2190      O2201   1.261       .  A
N2190      O2202   1.261       .  A
C2192      C2193   1.399       .  A
C2192      N2197   1.424       .  S
C2193      H2198   1.083       .  S
C2194      C2195   1.410   1_554  A
C2195      C2196   1.411       .  A
C2195      N2199   1.427       .  S
C2196      H2200   1.080       .  S
N2197      O2207   1.262       .  A
N2197      O2208   1.258       .  A
N2199      O2205   1.262       .  A
N2199      O2206   1.262       .  A
