geometry optimzed in LAMMPS
_audit_creation_date              2020-11-30 
_audit_creation_method            'lammps2cif' 
_symmetry_space_group_name_H-M    'P1' 
_symmetry_Int_Tables_number       1 
_symmetry_cell_setting            triclinic 
loop_ 
_symmetry_equiv_pos_as_xyz 
  x,y,z 
_cell_length_a                    26.89914811 
_cell_length_b                    26.96640381053965 
_cell_length_c                    57.834154456060475 
_cell_angle_alpha                 89.99534962830306 
_cell_angle_beta                  90.00723293634518 
_cell_angle_gamma                 89.54590573303429 
loop_ 
_atom_site_label 
_atom_site_type_symbol 
_atom_site_fract_x 
_atom_site_fract_y 
_atom_site_fract_z 
_atom_site_charge 
O1          O  0.46566558  0.99537211  0.13097082    -0.73700
O2          O  0.46121208  0.49697124  0.20036828    -0.74600
O3          O  0.46365504  0.07063333  0.16537611    -0.63300
O4          O  0.46378150  0.42171572  0.16583954    -0.71700
O5          O  0.04636789  0.42111044  0.16683891    -0.71200
O6          O  0.04623267  0.06981329  0.16641588    -0.62500
O7          O  0.04382525  0.49618165  0.20146453    -0.75000
O8          O  0.04820811  0.99463498  0.13186899    -0.73800
Cu9        Cu  0.46069689  0.99620409  0.16560325     1.04600
Cu10       Cu  0.04905704  0.49543638  0.16669824     1.04300
C11         C  0.00747438  0.99432172  0.12047715     0.92500
C12         C  0.50182137  0.49704841  0.21178774     0.91700
C13         C  0.00499639  0.09360615  0.16590512     0.83800
C14         C  0.00514907  0.39797313  0.16624891     0.90100
O15         O  0.04647847  0.17095659  0.16662147    -0.73700
O16         O  0.04658192  0.31986432  0.16637962    -0.74600
O17         O  0.04449442  0.24584223  0.20129676    -0.63300
O18         O  0.04874278  0.24465644  0.13173256    -0.71700
O19         O  0.46624408  0.24596697  0.13075415    -0.71200
O20         O  0.46187919  0.24655430  0.20021951    -0.62500
O21         O  0.46399397  0.32057779  0.16544870    -0.75000
O22         O  0.46390709  0.17186305  0.16548676    -0.73800
Cu23       Cu  0.04949120  0.24534522  0.16654613     1.04600
Cu24       Cu  0.46114623  0.24628235  0.16543438     1.04300
C25         C  0.00514792  0.14797171  0.16599712     0.92500
C26         C  0.00527422  0.34360577  0.16601001     0.91700
C27         C  0.00253946  0.24643562  0.21164233     0.83800
C28         C  0.00809989  0.24468067  0.12027978     0.90100
O29         O  0.28621511  0.42874579  0.16552223    -0.73700
O30         O  0.28627813  0.07770915  0.16580968    -0.74600
O31         O  0.28816806  0.50259721  0.20026701    -0.63300
O32         O  0.28480508  0.50389584  0.13092770    -0.71700
O33         O  0.20230958  0.50519116  0.13182557    -0.71200
O34         O  0.20552008  0.50296216  0.20113172    -0.62500
O35         O  0.20371939  0.07827459  0.16682949    -0.75000
O36         O  0.20364310  0.42960843  0.16621933    -0.73800
Cu37       Cu  0.28929157  0.50318795  0.16558887     1.04600
Cu38       Cu  0.20092866  0.50399458  0.16651532     1.04300
C39         C  0.24485964  0.40576701  0.16604502     0.92500
C40         C  0.24494146  0.10140237  0.16633790     0.91700
C41         C  0.24738123  0.50237330  0.21153070     0.83800
C42         C  0.24301597  0.50528616  0.12043762     0.90100
O43         O  0.28598384  0.17891908  0.16603021    -0.73700
O44         O  0.28589122  0.32758184  0.16629773    -0.74600
O45         O  0.28731419  0.25259353  0.20111079    -0.63300
O46         O  0.28387527  0.25388290  0.13141899    -0.71700
O47         O  0.20140086  0.25484240  0.13235011    -0.71200
O48         O  0.20471968  0.25316763  0.20185184    -0.62500
O49         O  0.20333313  0.32840924  0.16718846    -0.75000
O50         O  0.20341994  0.17944617  0.16680782    -0.73800
Cu51       Cu  0.28865982  0.25321631  0.16620442     1.04600
Cu52       Cu  0.20033894  0.25396541  0.16710104     1.04300
C53         C  0.24476996  0.15577000  0.16638649     0.92500
C54         C  0.24466912  0.35140519  0.16653262     0.91700
C55         C  0.24644650  0.25240024  0.21237998     0.83800
C56         C  0.24203596  0.25500183  0.12091491     0.90100
O57         O  0.07424064  0.45907880  0.28327085    -0.73700
O58         O  0.42535752  0.45984497  0.28286627    -0.74600
O59         O  0.50043846  0.45760262  0.24836042    -0.63300
O60         O  0.49958699  0.46107522  0.31788704    -0.71700
O61         O  0.50046695  0.04345386  0.31714337    -0.71200
O62         O  0.49919920  0.04000594  0.24750282    -0.62500
O63         O  0.42495393  0.04223429  0.28250394    -0.75000
O64         O  0.07373178  0.04145524  0.28205808    -0.73800
Cu65       Cu  0.49983323  0.45652256  0.28313996     1.04600
Cu66       Cu  0.49948201  0.04469564  0.28227739     1.04300
C67         C  0.09736568  0.50022138  0.28260189     0.92500
C68         C  0.40172174  0.50113067  0.28256825     0.91700
C69         C  0.50028186  0.49827014  0.23705304     0.83800
C70         C  0.50058076  0.50269754  0.32843006     0.90100
O71         O  0.50134238  0.20607476  0.24796082    -0.73700
O72         O  0.49449953  0.20821267  0.31725914    -0.74600
O73         O  0.42413419  0.20741733  0.28145953    -0.63300
O74         O  0.07287356  0.20663422  0.28405130    -0.71700
O75         O  0.07278911  0.28896479  0.28279091    -0.71200
O76         O  0.42393338  0.28978906  0.28229760    -0.62500
O77         O  0.99809346  0.29009104  0.31721729    -0.75000
O78         O  0.99922054  0.28846000  0.24760606    -0.73800
Cu79       Cu  0.49827658  0.20422132  0.28267762     1.04600
Cu80       Cu  0.99847082  0.29223422  0.28242732     1.04300
C81         C  0.50097255  0.24704542  0.23689909     0.92500
C82         C  0.99549680  0.24921959  0.32831751     0.91700
C83         C  0.40063550  0.24871112  0.28198701     0.83800
C84         C  0.09626378  0.24766506  0.28364114     0.90100
O85         O  0.32438719  0.45990628  0.28157060    -0.73700
O86         O  0.17562907  0.45925288  0.28276847    -0.74600
O87         O  0.24855237  0.46028429  0.24738204    -0.63300
O88         O  0.25205349  0.45934022  0.31675054    -0.71700
O89         O  0.24744600  0.04131640  0.31681271    -0.71200
O90         O  0.24931585  0.04273431  0.24768171    -0.62500
O91         O  0.17447934  0.04163476  0.28194151    -0.75000
O92         O  0.32333726  0.04225271  0.28270692    -0.73800
Cu93       Cu  0.25013732  0.45677440  0.28208632     1.04600
Cu94       Cu  0.24864582  0.04485594  0.28228310     1.04300
C95         C  0.34729790  0.50113971  0.28226605     0.92500
C96         C  0.15167007  0.50033341  0.28243730     0.91700
C97         C  0.24856936  0.50173063  0.23669708     0.83800
C98         C  0.25024052  0.50033098  0.32779973     0.90100
O99         O  0.24769642  0.20913187  0.24807595    -0.73700
O100        O  0.25062943  0.20477339  0.31776541    -0.74600
O101        O  0.17454368  0.20645017  0.28355333    -0.63300
O102        O  0.32337379  0.20742382  0.28216375    -0.71700
O103        O  0.32248350  0.28978340  0.28348888    -0.71200
O104        O  0.17367294  0.28883708  0.28414053    -0.62500
O105        O  0.24852402  0.28713739  0.31870981    -0.75000
O106        O  0.24741485  0.29151247  0.24909743    -0.73800
Cu107      Cu  0.24912067  0.20403950  0.28286837     1.04600
Cu108      Cu  0.24801960  0.29218972  0.28392751     1.04300
C109        C  0.24731837  0.25096300  0.23768995     0.92500
C110        C  0.24959613  0.24537701  0.32916387     0.91700
C111        C  0.15067964  0.24759457  0.28386860     0.83800
C112        C  0.34631234  0.24868228  0.28251230     0.90100
O113        O  0.50735908  0.04524100  0.43914739    -0.73700
O114        O  0.50730107  0.04526012  0.50900137    -0.74600
O115        O  0.08169318  0.04551688  0.47404234    -0.63300
O116        O  0.43287037  0.04537029  0.47399107    -0.71700
O117        O  0.43343558  0.46298272  0.47456548    -0.71200
O118        O  0.08227196  0.46312452  0.47353333    -0.62500
O119        O  0.50891200  0.46287498  0.50892444    -0.75000
O120        O  0.50645989  0.46286389  0.43927245    -0.73800
Cu121      Cu  0.50731001  0.04827132  0.47404892     1.04600
Cu122      Cu  0.50785320  0.46011223  0.47407619     1.04300
C123        C  0.50649409  0.50396360  0.42827923     0.92500
C124        C  0.50807924  0.50399227  0.51990252     0.91700
C125        C  0.10538629  0.50430263  0.47369095     0.83800
C126        C  0.40973930  0.50420984  0.47426471     0.90100
O127        O  0.99040823  0.20814168  0.44016456    -0.73700
O128        O  0.99462924  0.20619611  0.50945577    -0.74600
O129        O  0.41875605  0.20734654  0.47553884    -0.63300
O130        O  0.06754393  0.20692410  0.47399921    -0.71700
O131        O  0.06731477  0.28925028  0.47519082    -0.71200
O132        O  0.41847653  0.28972292  0.47471433    -0.62500
O133        O  0.99243203  0.28851898  0.50979576    -0.75000
O134        O  0.99368469  0.29005089  0.44017106    -0.73800
Cu135      Cu  0.99290455  0.20431221  0.47477036     1.04600
Cu136      Cu  0.99293010  0.29230655  0.47499707     1.04300
C137        C  0.99180275  0.24908741  0.42909445     0.92500
C138        C  0.99369838  0.24711662  0.52057400     0.91700
C139        C  0.39523856  0.24862636  0.47511230     0.83800
C140        C  0.09088192  0.24798478  0.47455143     0.90100
O141        O  0.25971115  0.04570840  0.50840464    -0.73700
O142        O  0.25495085  0.04390935  0.43888512    -0.74600
O143        O  0.18291391  0.04536354  0.47445712    -0.63300
O144        O  0.33168195  0.04534745  0.47282306    -0.71700
O145        O  0.33215828  0.46317687  0.47532983    -0.71200
O146        O  0.18340252  0.46309284  0.47273211    -0.62500
O147        O  0.26088697  0.46202295  0.43950516    -0.75000
O148        O  0.25393956  0.46428583  0.50852903    -0.73800
Cu149      Cu  0.25732445  0.04803299  0.47361275     1.04600
Cu150      Cu  0.25770401  0.46032510  0.47404047     1.04300
C151        C  0.25641241  0.50505308  0.51963056     0.92500
C152        C  0.25761995  0.50250608  0.42816387     0.91700
C153        C  0.15973884  0.50428077  0.47358506     0.83800
C154        C  0.35535574  0.50422872  0.47415557     0.90100
O155        O  0.16841774  0.28912384  0.47443929    -0.73700
O156        O  0.31720994  0.28976717  0.47413349    -0.74600
O157        O  0.24264069  0.28742149  0.43943286    -0.63300
O158        O  0.24371246  0.29118120  0.50905359    -0.71700
O159        O  0.24289976  0.20898802  0.50987800    -0.71200
O160        O  0.24503790  0.20505100  0.44036078    -0.62500
O161        O  0.31796986  0.20741548  0.47560416    -0.75000
O162        O  0.16914135  0.20674501  0.47468880    -0.73800
Cu163      Cu  0.24287056  0.29227037  0.47421954     1.04600
Cu164      Cu  0.24371627  0.20418015  0.47516666     1.04300
C165        C  0.14533255  0.24791976  0.47454015     0.92500
C166        C  0.34096018  0.24862744  0.47497438     0.91700
C167        C  0.24435794  0.24566632  0.42898652     0.83800
C168        C  0.24382529  0.25057133  0.52046550     0.90100
O169        O  0.46009605  0.99016422  0.94049235    -0.73700
O170        O  0.46443832  0.98984756  0.00999644    -0.74600
O171        O  0.46213401  0.06437505  0.97528642    -0.63300
O172        O  0.46236758  0.41556577  0.97517695    -0.71700
O173        O  0.04494437  0.41504718  0.97382586    -0.71200
O174        O  0.04474744  0.06385466  0.97449546    -0.62500
O175        O  0.04696917  0.98871915  0.00894761    -0.75000
O176        O  0.04256602  0.99065900  0.93941738    -0.73800
Cu177      Cu  0.45938577  0.98997416  0.97528529     1.04600
Cu178      Cu  0.04769181  0.98949929  0.97414137     1.04300
C179        C  0.00067372  0.99091289  0.92896867     0.92500
C180        C  0.00638075  0.98930025  0.02043922     0.91700
C181        C  0.00343720  0.08752975  0.97485779     0.83800
C182        C  0.00370900  0.39189346  0.97445592     0.90100
O183        O  0.45933375  0.23998939  0.94039815    -0.73700
O184        O  0.46508192  0.24026918  0.00984891    -0.74600
O185        O  0.46234578  0.31445722  0.97507196    -0.63300
O186        O  0.46212162  0.16563971  0.97526063    -0.71700
O187        O  0.04470600  0.16489435  0.97391002    -0.71200
O188        O  0.04492652  0.31369919  0.97369829    -0.62500
O189        O  0.04757579  0.23926842  0.00852258    -0.75000
O190        O  0.04189554  0.23905260  0.93899827    -0.73800
Cu191      Cu  0.45934634  0.24009714  0.97519068     1.04600
Cu192      Cu  0.04766346  0.23920353  0.97372105     1.04300
C193        C  0.99977336  0.23959404  0.92875505     0.92500
C194        C  0.00717323  0.23980582  0.02015481     0.91700
C195        C  0.00369995  0.33750935  0.97439363     0.83800
C196        C  0.00342376  0.14187413  0.97468652     0.90100
O197        O  0.28697382  0.43522602  0.97586209    -0.73700
O198        O  0.28695236  0.08396719  0.97597745    -0.74600
O199        O  0.28269088  0.00977926  0.01051459    -0.63300
O200        O  0.29109800  0.50976908  0.94122358    -0.71700
O201        O  0.20872174  0.50979639  0.93916841    -0.71200
O202        O  0.20030014  0.51113546  0.00862827    -0.62500
O203        O  0.20450553  0.08470225  0.97375138    -0.75000
O204        O  0.20449554  0.43582191  0.97408755    -0.73800
Cu205      Cu  0.28977387  0.00963898  0.97597011     1.04600
Cu206      Cu  0.20159599  0.51035918  0.97382501     1.04300
C207        C  0.24576532  0.41208602  0.97495208     0.92500
C208        C  0.24574942  0.10772280  0.97495152     0.91700
C209        C  0.24034600  0.51084238  0.02052231     0.83800
C210        C  0.25119147  0.50971048  0.92923904     0.90100
O211        O  0.20919281  0.25953093  0.93928150    -0.73700
O212        O  0.20066268  0.26048056  0.00890112    -0.74600
O213        O  0.20466131  0.33452870  0.97394849    -0.63300
O214        O  0.20463543  0.18580022  0.97416769    -0.71700
O215        O  0.28710148  0.18503621  0.97624222    -0.71200
O216        O  0.28712936  0.33392702  0.97582867    -0.62500
O217        O  0.28307411  0.25993174  0.01072123    -0.75000
O218        O  0.29160429  0.25855527  0.94132887    -0.73800
Cu219      Cu  0.20189359  0.26013350  0.97399724     1.04600
Cu220      Cu  0.29008432  0.25937606  0.97611647     1.04300
C221        C  0.25168986  0.25854732  0.92935466     0.92500
C222        C  0.24076933  0.26031855  0.02077857     0.91700
C223        C  0.24586324  0.35766534  0.97490111     0.83800
C224        C  0.24583438  0.16203011  0.97514380     0.90100
O225        O  0.03820091  0.42231697  0.78327132    -0.73700
O226        O  0.03796359  0.07115083  0.78265248    -0.74600
O227        O  0.03748167  0.99735470  0.81765582    -0.63300
O228        O  0.03900147  0.99656234  0.74811307    -0.71700
O229        O  0.45639254  0.99755353  0.74766249    -0.71200
O230        O  0.45498718  0.99678116  0.81755514    -0.62500
O231        O  0.45533381  0.07155638  0.78264830    -0.75000
O232        O  0.45559365  0.42275824  0.78271306    -0.73800
Cu233      Cu  0.04099950  0.99681291  0.78293004     1.04600
Cu234      Cu  0.45265145  0.99718482  0.78262081     1.04300
C235        C  0.49688939  0.39905826  0.78320257     0.92500
C236        C  0.49658358  0.09470057  0.78255015     0.91700
C237        C  0.99625087  0.99670912  0.82862558     0.83800
C238        C  0.49799768  0.99744971  0.73696264     0.90100
O239        O  0.45528346  0.17279060  0.78237609    -0.73700
O240        O  0.45555779  0.32159548  0.78339348    -0.74600
O241        O  0.45590933  0.24858273  0.74807696    -0.63300
O242        O  0.45503312  0.24558793  0.81768243    -0.71700
O243        O  0.03764907  0.24455211  0.81789320    -0.71200
O244        O  0.03855367  0.24811336  0.74833339    -0.62500
O245        O  0.03818059  0.32094794  0.78374636    -0.75000
O246        O  0.03792210  0.17216154  0.78249195    -0.73800
Cu247      Cu  0.45254569  0.24720020  0.78287775     1.04600
Cu248      Cu  0.04095587  0.24645554  0.78312835     1.04300
C249        C  0.99660847  0.14913027  0.78243310     0.92500
C250        C  0.99692019  0.34475054  0.78353687     0.91700
C251        C  0.99739614  0.24891740  0.73732359     0.83800
C252        C  0.99626261  0.24419295  0.82874307     0.90100
O253        O  0.21245233  0.00193094  0.74893000    -0.73700
O254        O  0.21517663  0.00361798  0.81843522    -0.74600
O255        O  0.21368800  0.07696602  0.78347374    -0.63300
O256        O  0.21383205  0.42824379  0.78399736    -0.71700
O257        O  0.29640028  0.42755927  0.78358478    -0.71200
O258        O  0.29625816  0.07644625  0.78265139    -0.62500
O259        O  0.29765010  0.00369545  0.81790211    -0.75000
O260        O  0.29505934  0.00081591  0.74828390    -0.73800
Cu261      Cu  0.21093354  0.00265761  0.78372996     1.04600
Cu262      Cu  0.29926344  0.00204874  0.78307604     1.04300
C263        C  0.25334590  0.00108749  0.73771805     0.92500
C264        C  0.25672847  0.00460516  0.82914064     0.91700
C265        C  0.25492536  0.10009934  0.78313505     0.83800
C266        C  0.25509230  0.40446967  0.78376770     0.90100
O267        O  0.21535076  0.25290230  0.81863012    -0.73700
O268        O  0.21102825  0.25209308  0.74916931    -0.74600
O269        O  0.21350354  0.17811006  0.78396675    -0.63300
O270        O  0.21362138  0.32702681  0.78389103    -0.71700
O271        O  0.29617294  0.32622269  0.78302945    -0.71200
O272        O  0.29606625  0.17751340  0.78300022    -0.62500
O273        O  0.29359624  0.25141176  0.74806929    -0.75000
O274        O  0.29786239  0.25200846  0.81793683    -0.73800
Cu275      Cu  0.21053263  0.25254852  0.78395613     1.04600
Cu276      Cu  0.29885089  0.25176220  0.78296424     1.04300
C277        C  0.25699939  0.25295590  0.82925397     0.92500
C278        C  0.25158198  0.25130268  0.73771428     0.91700
C279        C  0.25481620  0.15442088  0.78337371     0.83800
C280        C  0.25496096  0.35005706  0.78357809     0.90100
O281        O  0.49992233  0.45810682  0.70026380    -0.73700
O282        O  0.50322478  0.46125165  0.63057885    -0.74600
O283        O  0.07604045  0.46063643  0.66619080    -0.63300
O284        O  0.42701284  0.45965158  0.66486213    -0.71700
O285        O  0.42640777  0.04203518  0.66572054    -0.71200
O286        O  0.07500125  0.04302545  0.66675462    -0.62500
O287        O  0.50205903  0.04362440  0.63118035    -0.75000
O288        O  0.49921562  0.04047746  0.70110127    -0.73800
Cu289      Cu  0.50159182  0.45702534  0.66541393     1.04600
Cu290      Cu  0.50061502  0.04517313  0.66619396     1.04300
C291        C  0.49893085  0.99874002  0.71160069     0.92500
C292        C  0.50332191  0.00277981  0.61993538     0.91700
C293        C  0.09893403  0.00196726  0.66667109     0.83800
C294        C  0.40330809  0.00089358  0.66541586     0.90100
O295        O  0.07290672  0.20828056  0.66651029    -0.73700
O296        O  0.42382782  0.20801940  0.66634073    -0.74600
O297        O  0.49825583  0.20724729  0.63169859    -0.63300
O298        O  0.99815998  0.20810647  0.70114426    -0.71700
O299        O  0.99761193  0.29052454  0.70112788    -0.71200
O300        O  0.99717415  0.28959825  0.63137816    -0.62500
O301        O  0.42336511  0.29043145  0.66627543    -0.75000
O302        O  0.07193588  0.29066889  0.66620818    -0.73800
Cu303      Cu  0.99834776  0.20503666  0.66643452     1.04600
Cu304      Cu  0.99753838  0.29320371  0.66623107     1.04300
C305        C  0.09585393  0.24959354  0.66645078     0.92500
C306        C  0.40021424  0.24932994  0.66629073     0.91700
C307        C  0.99734751  0.24818756  0.62059126     0.83800
C308        C  0.99775478  0.24928102  0.71202676     0.90100
O309        O  0.32546116  0.46028376  0.66539796    -0.73700
O310        O  0.17689454  0.46097870  0.66748127    -0.74600
O311        O  0.24824863  0.46239198  0.63184513    -0.63300
O312        O  0.25333979  0.46009005  0.70139632    -0.71700
O313        O  0.25066213  0.04247866  0.70167169    -0.71200
O314        O  0.25307096  0.04391015  0.63228592    -0.62500
O315        O  0.17660652  0.04332222  0.66652773    -0.75000
O316        O  0.32565305  0.04257094  0.66714234    -0.73800
Cu317      Cu  0.25099836  0.45805990  0.66653782     1.04600
Cu318      Cu  0.25136824  0.04596236  0.66695161     1.04300
C319        C  0.34896200  0.00120441  0.66595576     0.92500
C320        C  0.15332084  0.00219430  0.66695804     0.91700
C321        C  0.25102656  0.00344103  0.62090532     0.83800
C322        C  0.25238660  0.00115427  0.71242541     0.90100
O323        O  0.24801718  0.29171446  0.63195121    -0.73700
O324        O  0.24847849  0.29173282  0.70139426    -0.74600
O325        O  0.32239795  0.29102905  0.66653686    -0.63300
O326        O  0.17331283  0.29121296  0.66663569    -0.71700
O327        O  0.17411407  0.20883070  0.66691063    -0.71200
O328        O  0.32265898  0.20862493  0.66621414    -0.62500
O329        O  0.24963409  0.20933581  0.70156549    -0.75000
O330        O  0.24749432  0.20949723  0.63170993    -0.73800
Cu331      Cu  0.24796576  0.29428667  0.66664165     1.04600
Cu332      Cu  0.24844881  0.20616805  0.66661068     1.04300
C333        C  0.24763110  0.25081630  0.62082365     0.92500
C334        C  0.24980055  0.25069997  0.71238586     0.91700
C335        C  0.34590944  0.24967140  0.66632377     0.83800
C336        C  0.15027696  0.24994190  0.66668088     0.90100
C337        C  0.28184334  0.21777988  0.86787643    -0.02600
C338        C  0.25745674  0.25499016  0.85486687     0.07100
C339        C  0.23229859  0.29388849  0.86641894    -0.02700
C340        C  0.23095413  0.29523308  0.89075116    -0.02700
C341        C  0.25458629  0.25763983  0.90377348     0.07300
C342        C  0.28044236  0.21908922  0.89226091    -0.02900
Br343      Br  0.31179064  0.16650162  0.90980813    -0.01400
Br344      Br  0.31475401  0.16337626  0.85232913    -0.01500
Br345      Br  0.19857170  0.35004976  0.90626193    -0.01400
Br346      Br  0.20115943  0.34670974  0.84895037    -0.01400
C347        C  0.28364462  0.47366918  0.89211863    -0.02600
C348        C  0.25412285  0.00946296  0.90365589     0.07100
C349        C  0.22713998  0.04487284  0.89064951    -0.02700
C350        C  0.22849203  0.04361454  0.86630775    -0.02700
C351        C  0.25717732  0.00715426  0.85474786     0.07300
C352        C  0.28550622  0.47280224  0.86776797    -0.02900
Br353      Br  0.32516365  0.42274457  0.85237293    -0.01400
Br354      Br  0.31926138  0.42356811  0.90952894    -0.01500
Br355      Br  0.19282411  0.09372631  0.84890344    -0.01400
Br356      Br  0.19006783  0.09684497  0.90611286    -0.01400
C357        C  0.02119865  0.20188790  0.89039027    -0.02600
C358        C  0.99777658  0.24001408  0.90318620     0.07100
C359        C  0.47278183  0.27877400  0.89145950    -0.02700
C360        C  0.47192393  0.27982921  0.86711016    -0.02700
C361        C  0.99606167  0.24221773  0.85431887     0.07300
C362        C  0.02029936  0.20293935  0.86602958    -0.02900
Br363      Br  0.05035614  0.14920030  0.84876501    -0.01400
Br364      Br  0.05272688  0.14695909  0.90623403    -0.01500
Br365      Br  0.43996509  0.33450980  0.85130187    -0.01400
Br366      Br  0.44204987  0.33216730  0.90868947    -0.01400
C367        C  0.96835995  0.02698054  0.89174262    -0.02600
C368        C  0.99907603  0.99219638  0.90331724     0.07100
C369        C  0.52831262  0.45866357  0.89026627    -0.02700
C370        C  0.52704479  0.45998388  0.86591709    -0.02700
C371        C  0.99657837  0.99496279  0.85431222     0.07300
C372        C  0.96696980  0.02821426  0.86736516    -0.02900
Br373      Br  0.92623887  0.07744572  0.85201677    -0.01400
Br374      Br  0.93027094  0.07526903  0.90916694    -0.01500
Br375      Br  0.56536582  0.41171324  0.84860347    -0.01400
Br376      Br  0.56857127  0.40897299  0.90563588    -0.01400
C377        C  0.28109580  0.22156769  0.58256041    -0.02600
C378        C  0.24727636  0.25147585  0.59514363     0.07100
C379        C  0.21337946  0.28237157  0.58307117    -0.02700
C380        C  0.21246322  0.28236853  0.55869858    -0.02700
C381        C  0.24545822  0.25153552  0.54612702     0.07300
C382        C  0.28014465  0.22152175  0.55819085    -0.02900
Br383      Br  0.32856552  0.18205718  0.54146213    -0.01400
Br384      Br  0.33111391  0.18272828  0.59855816    -0.01500
Br385      Br  0.16389766  0.32300693  0.54270890    -0.01400
Br386      Br  0.16620875  0.32337157  0.59974503    -0.01400
C387        C  0.23523208  0.54607432  0.58239106    -0.02600
C388        C  0.25240101  0.00405422  0.59498128     0.07100
C389        C  0.27128793  0.96260952  0.58254493    -0.02700
C390        C  0.27209889  0.96274217  0.55815980    -0.02700
C391        C  0.25528674  0.50490333  0.54555717     0.07300
C392        C  0.23681359  0.54654790  0.55799082    -0.02900
Br393      Br  0.20977740  0.60414909  0.54211970     0.05000
Br394      Br  0.20652917  0.60329924  0.59792627    -0.01500
Br395      Br  0.29841793  0.90425773  0.54269478    -0.01400
Br396      Br  0.29972360  0.90554116  0.59836591    -0.01400
C397        C  0.03379738  0.22239671  0.58251155    -0.02600
C398        C  0.99619394  0.24749751  0.59500768     0.07100
C399        C  0.45710639  0.27138082  0.58297823    -0.02700
C400        C  0.45599592  0.27074453  0.55862801    -0.02700
C401        C  0.99415935  0.24656391  0.54614509     0.07300
C402        C  0.03283876  0.22200108  0.55815657    -0.02900
Br403      Br  0.08594867  0.18963423  0.54129326    -0.01400
Br404      Br  0.08810410  0.19043633  0.59867824    -0.01500
Br405      Br  0.40059064  0.30069454  0.54242589    -0.01400
Br406      Br  0.40361711  0.30301789  0.59984137    -0.01400
C407        C  0.46125849  0.00415208  0.55724437    -0.02600
C408        C  0.50712415  0.50370525  0.54547536     0.07100
C409        C  0.05181525  0.50207551  0.55818860    -0.02700
C410        C  0.05062322  0.50206156  0.58258604    -0.02700
C411        C  0.50472727  0.00339972  0.59434764     0.07300
C412        C  0.46007490  0.00398591  0.58161655    -0.02900
Br413      Br  0.39735590  0.00376335  0.59768936    -0.01400
Br414      Br  0.40011023  0.00391157  0.53985014    -0.01500
Br415      Br  0.11168802  0.49951078  0.59998760    -0.01400
Br416      Br  0.11445856  0.49878881  0.54205452    -0.01400
C417        C  0.29157077  0.23245361  0.36743900    -0.02600
C418        C  0.24835546  0.24419453  0.35469742     0.07100
C419        C  0.20372214  0.25551240  0.36640453    -0.02700
C420        C  0.20236483  0.25557849  0.39074128    -0.02700
C421        C  0.24563335  0.24440102  0.40347983     0.07300
C422        C  0.29020466  0.23258220  0.39181425    -0.02900
Br423      Br  0.34969157  0.21832983  0.40932170    -0.01400
Br424      Br  0.35293930  0.21797315  0.35148167    -0.01500
Br425      Br  0.14097025  0.26979487  0.40673578    -0.01400
Br426      Br  0.14411560  0.26985594  0.34902441    -0.01400
C427        C  0.27992985  0.03712340  0.36520416    -0.02600
C428        C  0.25213479  0.50056552  0.35346594     0.07100
C429        C  0.22681060  0.46408626  0.36639864    -0.02700
C430        C  0.22916739  0.46425657  0.39073223    -0.02700
C431        C  0.25639523  0.50130476  0.40247596     0.07300
C432        C  0.28209813  0.03740517  0.38951588    -0.02900
Br433      Br  0.32362935  0.08569231  0.40472276    -0.01400
Br434      Br  0.31806605  0.08570750  0.34825248    -0.01500
Br435      Br  0.19268418  0.41432029  0.40763657    -0.01400
Br436      Br  0.18602269  0.41503002  0.35117066    -0.01400
C437        C  0.01857431  0.21124330  0.36672061    -0.02600
C438        C  0.99387507  0.24910843  0.35410344     0.07100
C439        C  0.46723641  0.28630370  0.36630419    -0.02700
C440        C  0.46575454  0.28582447  0.39069911    -0.02700
C441        C  0.99177085  0.24881382  0.40330469     0.07300
C442        C  0.01779935  0.21127027  0.39106861    -0.02900
Br443      Br  0.05505863  0.16029184  0.40728059    -0.01400
Br444      Br  0.05608578  0.15969315  0.35107579    -0.01500
Br445      Br  0.42444124  0.33414495  0.40651486    -0.01400
Br446      Br  0.42959601  0.33672656  0.34993030    -0.01400
C447        C  0.04631318  0.51604890  0.36557806    -0.02600
C448        C  0.50205228  0.50353706  0.35394698     0.07100
C449        C  0.45956195  0.99049172  0.36673949    -0.02700
C450        C  0.46112264  0.99036998  0.39108579    -0.02700
C451        C  0.50510842  0.50366406  0.40273655     0.07300
C452        C  0.04783905  0.51609104  0.38994198    -0.02900
Br453      Br  0.10911518  0.53050594  0.40583561    -0.01400
Br454      Br  0.10542756  0.53089253  0.34807108    -0.01500
Br455      Br  0.40285697  0.97243017  0.40851833    -0.01400
Br456      Br  0.39897396  0.97376794  0.35079398    -0.01400
C457        C  0.26706887  0.29403727  0.08335272    -0.02600
C458        C  0.24056623  0.25701702  0.09531021     0.07100
C459        C  0.21222212  0.22238424  0.08271821    -0.02700
C460        C  0.21154653  0.22386769  0.05834961    -0.02700
C461        C  0.23867952  0.26043185  0.04639453     0.07300
C462        C  0.26561295  0.29608374  0.05902246    -0.02900
Br463      Br  0.29838099  0.34965533  0.04306917    -0.01400
Br464      Br  0.30399791  0.34344412  0.10023606    -0.01500
Br465      Br  0.17565676  0.17383863  0.04143212    -0.01400
Br466      Br  0.17650961  0.17089427  0.09873495    -0.01400
C467        C  0.26678639  0.04607881  0.05859541    -0.02600
C468        C  0.23818992  0.51150724  0.04609609     0.07100
C469        C  0.20966836  0.47618751  0.05815360    -0.02700
C470        C  0.21210458  0.47357582  0.08243876    -0.02700
C471        C  0.24158917  0.50737518  0.09489790     0.07300
C472        C  0.26867775  0.04389920  0.08290224    -0.02900
Br473      Br  0.30725471  0.09224403  0.09966736    -0.01400
Br474      Br  0.30082218  0.09876267  0.04255040    -0.01500
Br475      Br  0.17809772  0.42097197  0.09847898    -0.01400
Br476      Br  0.16825212  0.43010148  0.04157409    -0.01400
C477        C  0.48118793  0.20659958  0.08282807    -0.02600
C478        C  0.00925013  0.24262883  0.09467727     0.07100
C479        C  0.03803696  0.27665708  0.08195531    -0.02700
C480        C  0.03766338  0.27553400  0.05759209    -0.02700
C481        C  0.00890955  0.24003560  0.04575918     0.07300
C482        C  0.48115493  0.20518679  0.05848684    -0.02900
Br483      Br  0.44487489  0.15367625  0.04270272    -0.01400
Br484      Br  0.44454568  0.15724006  0.09989034    -0.01500
Br485      Br  0.07425046  0.32483623  0.04051521    -0.01400
Br486      Br  0.07602172  0.32676727  0.09776073    -0.01400
C487        C  0.03497793  0.02655527  0.05782925    -0.02600
C488        C  0.00781777  0.98975998  0.04603452     0.07100
C489        C  0.48131772  0.45396432  0.05878585    -0.02700
C490        C  0.48194784  0.45503646  0.08313133    -0.02700
C491        C  0.00843081  0.99232503  0.09491287     0.07300
C492        C  0.03501846  0.02800469  0.08218074    -0.02900
Br493      Br  0.06901937  0.08086827  0.09801503    -0.01400
Br494      Br  0.06990224  0.07695803  0.04070361    -0.01500
Br495      Br  0.44840558  0.40371397  0.10032318    -0.01400
Br496      Br  0.44565392  0.40202585  0.04302559    -0.01400
O497        O  0.46566487  0.49537195  0.13097131    -0.73700
O498        O  0.46121220  0.99697141  0.20036786    -0.74600
O499        O  0.46365459  0.57063324  0.16537659    -0.63300
O500        O  0.46378178  0.92171586  0.16583906    -0.71700
O501        O  0.04636814  0.92111047  0.16683855    -0.71200
O502        O  0.04623225  0.56981322  0.16641621    -0.62500
O503        O  0.04382531  0.99618171  0.20146427    -0.75000
O504        O  0.04820742  0.49463485  0.13186934    -0.73800
Cu505      Cu  0.46069650  0.49620394  0.16560373     1.04600
Cu506      Cu  0.04905740  0.99543645  0.16669792     1.04300
C507        C  0.00747362  0.49432157  0.12047757     0.92500
C508        C  0.50182139  0.99704852  0.21178742     0.91700
C509        C  0.00499598  0.59360609  0.16590551     0.83800
C510        C  0.00514940  0.89797320  0.16624848     0.90100
O511        O  0.04647817  0.67095650  0.16662175    -0.73700
O512        O  0.04658204  0.81986427  0.16637929    -0.74600
O513        O  0.04449435  0.74584286  0.20129671    -0.63300
O514        O  0.04874265  0.74465564  0.13173254    -0.71700
O515        O  0.46624388  0.74596640  0.13075415    -0.71200
O516        O  0.46187906  0.74655503  0.20021949    -0.62500
O517        O  0.46399400  0.82057790  0.16544841    -0.75000
O518        O  0.46390672  0.67186308  0.16548704    -0.73800
Cu519      Cu  0.04949109  0.74534514  0.16654610     1.04600
Cu520      Cu  0.46114607  0.74628243  0.16543437     1.04300
C521        C  0.00514757  0.64797167  0.16599744     0.92500
C522        C  0.00527430  0.84360582  0.16600964     0.91700
C523        C  0.00253940  0.74643649  0.21164229     0.83800
C524        C  0.00809975  0.74467984  0.12027976     0.90100
O525        O  0.28621249  0.92874592  0.16552190    -0.73700
O526        O  0.28627980  0.57770936  0.16581005    -0.74600
O527        O  0.28816645  0.00259726  0.20026673    -0.63300
O528        O  0.28480197  0.00389592  0.13092730    -0.71700
O529        O  0.20230651  0.00519151  0.13182555    -0.71200
O530        O  0.20551850  0.00296272  0.20113176    -0.62500
O531        O  0.20372105  0.57827414  0.16682956    -0.75000
O532        O  0.20364050  0.92960861  0.16621938    -0.73800
Cu533      Cu  0.28928928  0.00318793  0.16558851     1.04600
Cu534      Cu  0.20092641  0.00399496  0.16651534     1.04300
C535        C  0.24485715  0.90576715  0.16604489     0.92500
C536        C  0.24494310  0.60140227  0.16633813     0.91700
C537        C  0.24737981  0.00237367  0.21153060     0.83800
C538        C  0.24301264  0.00528650  0.12043739     0.90100
O539        O  0.28598443  0.67891961  0.16603048    -0.73700
O540        O  0.28588931  0.82758239  0.16629774    -0.74600
O541        O  0.28731324  0.75259449  0.20111087    -0.63300
O542        O  0.28387502  0.75388319  0.13141916    -0.71700
O543        O  0.20140058  0.75484149  0.13235007    -0.71200
O544        O  0.20471872  0.75316745  0.20185185    -0.62500
O545        O  0.20333120  0.82840887  0.16718832    -0.75000
O546        O  0.20342054  0.67944558  0.16680795    -0.73800
Cu547      Cu  0.28865914  0.75321695  0.16620457     1.04600
Cu548      Cu  0.20033824  0.75396485  0.16710102     1.04300
C549        C  0.24477069  0.65576995  0.16638671     0.92500
C550        C  0.24466682  0.85140530  0.16653253     0.91700
C551        C  0.24644553  0.75240076  0.21238001     0.83800
C552        C  0.24203583  0.75500141  0.12091499     0.90100
O553        O  0.07423993  0.95907775  0.28327071    -0.73700
O554        O  0.42535682  0.95984392  0.28286578    -0.74600
O555        O  0.50043811  0.95760226  0.24836004    -0.63300
O556        O  0.49958582  0.96107342  0.31788675    -0.71700
O557        O  0.50046816  0.54345565  0.31714325    -0.71200
O558        O  0.49919946  0.54000631  0.24750291    -0.62500
O559        O  0.42495464  0.54223533  0.28250410    -0.75000
O560        O  0.07373248  0.54145627  0.28205784    -0.73800
Cu561      Cu  0.49983249  0.95652154  0.28313961     1.04600
Cu562      Cu  0.49948273  0.54469667  0.28227735     1.04300
C563        C  0.09736498  0.00022029  0.28260199     0.92500
C564        C  0.40172104  0.00112967  0.28256794     0.91700
C565        C  0.50028167  0.99826995  0.23705277     0.83800
C566        C  0.50057936  0.00269549  0.32843000     0.90100
O567        O  0.50134237  0.70607576  0.24796077    -0.73700
O568        O  0.49449971  0.70821329  0.31725903    -0.74600
O569        O  0.42413416  0.70741827  0.28145942    -0.63300
O570        O  0.07287358  0.70663513  0.28405127    -0.71700
O571        O  0.07278911  0.78896570  0.28279088    -0.71200
O572        O  0.42393341  0.78979000  0.28229752    -0.62500
O573        O  0.99809367  0.79009163  0.31721720    -0.75000
O574        O  0.99922051  0.78846101  0.24760600    -0.73800
Cu575      Cu  0.49827660  0.70422220  0.28267754     1.04600
Cu576      Cu  0.99847084  0.79223510  0.28242726     1.04300
C577        C  0.50097249  0.74704641  0.23689904     0.92500
C578        C  0.99549732  0.74922013  0.32831740     0.91700
C579        C  0.40063550  0.74871199  0.28198686     0.83800
C580        C  0.09626378  0.74766607  0.28364118     0.90100
O581        O  0.32438650  0.95990527  0.28157031    -0.73700
O582        O  0.17562837  0.95925179  0.28276829    -0.74600
O583        O  0.24855159  0.96028410  0.24738181    -0.63300
O584        O  0.25205287  0.95933805  0.31675033    -0.71700
O585        O  0.24744600  0.54131853  0.31681232    -0.71200
O586        O  0.24931703  0.54273451  0.24768155    -0.62500
O587        O  0.17448000  0.54163582  0.28194100    -0.75000
O588        O  0.32333793  0.54225374  0.28270692    -0.73800
Cu589      Cu  0.25013662  0.95677332  0.28208607     1.04600
Cu590      Cu  0.24864645  0.54485703  0.28228281     1.04300
C591        C  0.34729721  0.00113865  0.28226584     0.92500
C592        C  0.15166938  0.00033239  0.28243747     0.91700
C593        C  0.24856830  0.00173065  0.23669702     0.83800
C594        C  0.25024026  0.00032844  0.32779982     0.90100
O595        O  0.24769568  0.70913268  0.24807602    -0.73700
O596        O  0.25063020  0.70477466  0.31776539    -0.74600
O597        O  0.17454368  0.70645121  0.28355361    -0.63300
O598        O  0.32337374  0.70742482  0.28216353    -0.71700
O599        O  0.32248352  0.78978440  0.28348857    -0.71200
O600        O  0.17367293  0.78883812  0.28414065    -0.62500
O601        O  0.24852476  0.78713868  0.31870965    -0.75000
O602        O  0.24741427  0.79151331  0.24909735    -0.73800
Cu603      Cu  0.24912064  0.70404053  0.28286840     1.04600
Cu604      Cu  0.24801961  0.79219078  0.28392740     1.04300
C605        C  0.24731748  0.75096374  0.23768996     0.92500
C606        C  0.24959740  0.74537838  0.32916377     0.91700
C607        C  0.15067963  0.74759551  0.28386878     0.83800
C608        C  0.34631232  0.74868335  0.28251205     0.90100
O609        O  0.50736174  0.54524464  0.43914732    -0.73700
O610        O  0.50730422  0.54526310  0.50900128    -0.74600
O611        O  0.08169604  0.54552005  0.47404212    -0.63300
O612        O  0.43287316  0.54537359  0.47399105    -0.71700
O613        O  0.43343282  0.96297943  0.47456595    -0.71200
O614        O  0.08226927  0.96312134  0.47353351    -0.62500
O615        O  0.50890990  0.96287201  0.50892476    -0.75000
O616        O  0.50645687  0.96286027  0.43927267    -0.73800
Cu617      Cu  0.50731289  0.54827462  0.47404883     1.04600
Cu618      Cu  0.50785053  0.96010895  0.47407648     1.04300
C619        C  0.50649134  0.00395988  0.42827935     0.92500
C620        C  0.50807678  0.00398944  0.51990273     0.91700
C621        C  0.10538352  0.00429960  0.47369115     0.83800
C622        C  0.40973653  0.00420653  0.47426499     0.90100
O623        O  0.99041569  0.70814416  0.44016444    -0.73700
O624        O  0.99463690  0.70619878  0.50945552    -0.74600
O625        O  0.41876360  0.70734942  0.47553868    -0.63300
O626        O  0.06755160  0.70692679  0.47399899    -0.71700
O627        O  0.06732241  0.78925298  0.47519045    -0.71200
O628        O  0.41848426  0.78972580  0.47471427    -0.62500
O629        O  0.99244023  0.78852163  0.50979553    -0.75000
O630        O  0.99369205  0.79005339  0.44017085    -0.73800
Cu631      Cu  0.99291216  0.70431486  0.47477018     1.04600
Cu632      Cu  0.99293785  0.79230921  0.47499685     1.04300
C633        C  0.99180988  0.74908985  0.42909430     0.92500
C634        C  0.99370641  0.74711926  0.52057377     0.91700
C635        C  0.39524619  0.74862932  0.47511218     0.83800
C636        C  0.09088956  0.74798734  0.47455113     0.90100
O637        O  0.25971422  0.54570955  0.50840473    -0.73700
O638        O  0.25495303  0.54391367  0.43888517    -0.74600
O639        O  0.18291670  0.54536642  0.47445734    -0.63300
O640        O  0.33168465  0.54535063  0.47282298    -0.71700
O641        O  0.33215545  0.96317375  0.47533040    -0.71200
O642        O  0.18339977  0.96308987  0.47273273    -0.62500
O643        O  0.26088425  0.96201860  0.43950565    -0.75000
O644        O  0.25393691  0.96428444  0.50852969    -0.73800
Cu645      Cu  0.25732718  0.54803589  0.47361285     1.04600
Cu646      Cu  0.25770123  0.96032213  0.47404109     1.04300
C647        C  0.25640978  0.00505229  0.51963079     0.92500
C648        C  0.25761794  0.00250146  0.42816408     0.91700
C649        C  0.15973607  0.00427773  0.47358525     0.83800
C650        C  0.35535298  0.00422554  0.47415589     0.90100
O651        O  0.16842525  0.78912665  0.47443899    -0.73700
O652        O  0.31721754  0.78977025  0.47413346    -0.74600
O653        O  0.24264834  0.78742480  0.43943274    -0.63300
O654        O  0.24371951  0.79118414  0.50905341    -0.71700
O655        O  0.24290759  0.70899087  0.50987771    -0.71200
O656        O  0.24504523  0.70505428  0.44036055    -0.62500
O657        O  0.31797747  0.70741854  0.47560382    -0.75000
O658        O  0.16914905  0.70674781  0.47468861    -0.73800
Cu659      Cu  0.24287806  0.79227343  0.47421939     1.04600
Cu660      Cu  0.24372393  0.70418317  0.47516640     1.04300
C661        C  0.14534017  0.74792266  0.47453989     0.92500
C662        C  0.34096779  0.74863048  0.47497422     0.91700
C663        C  0.24436513  0.74566968  0.42898635     0.83800
C664        C  0.24383257  0.75057417  0.52046524     0.90100
O665        O  0.46009643  0.49016314  0.94049263    -0.73700
O666        O  0.46443809  0.48984710  0.00999676    -0.74600
O667        O  0.46213263  0.56437440  0.97528662    -0.63300
O668        O  0.46236591  0.91556643  0.97517659    -0.71700
O669        O  0.04494285  0.91504662  0.97382539    -0.71200
O670        O  0.04474601  0.56385524  0.97449579    -0.62500
O671        O  0.04696891  0.48872001  0.00894808    -0.75000
O672        O  0.04256633  0.49065936  0.93941774    -0.73800
Cu673      Cu  0.45938586  0.48997340  0.97528558     1.04600
Cu674      Cu  0.04769186  0.48949994  0.97414179     1.04300
C675        C  0.00067409  0.49091245  0.92896896     0.92500
C676        C  0.00638039  0.48930049  0.02043963     0.91700
C677        C  0.00343547  0.58752973  0.97485800     0.83800
C678        C  0.00370711  0.89189349  0.97445556     0.90100
O679        O  0.45933051  0.73998937  0.94039824    -0.73700
O680        O  0.46507972  0.74026909  0.00984903    -0.74600
O681        O  0.46234323  0.81445740  0.97507201    -0.63300
O682        O  0.46211908  0.66563950  0.97526076    -0.71700
O683        O  0.04470352  0.66489451  0.97390996    -0.71200
O684        O  0.04492396  0.81369902  0.97369800    -0.62500
O685        O  0.04757367  0.73926849  0.00852240    -0.75000
O686        O  0.04189232  0.73905237  0.93899811    -0.73800
Cu687      Cu  0.45934365  0.74009711  0.97519079     1.04600
Cu688      Cu  0.04766081  0.73920351  0.97372086     1.04300
C689        C  0.99976998  0.73959388  0.92875502     0.92500
C690        C  0.00717131  0.73980572  0.02015478     0.91700
C691        C  0.00369755  0.83750936  0.97439343     0.83800
C692        C  0.00342137  0.64187411  0.97468661     0.90100
O693        O  0.28697141  0.93522562  0.97586214    -0.73700
O694        O  0.28695259  0.58396783  0.97597771    -0.74600
O695        O  0.28269326  0.50977940  0.01051467    -0.63300
O696        O  0.29109734  0.00976787  0.94122340    -0.71700
O697        O  0.20872108  0.00979636  0.93916798    -0.71200
O698        O  0.20029782  0.01113607  0.00862775    -0.62500
O699        O  0.20450572  0.58470184  0.97375192    -0.75000
O700        O  0.20449316  0.93582217  0.97408719    -0.73800
Cu701      Cu  0.28977528  0.50963962  0.97597021     1.04600
Cu702      Cu  0.20159462  0.01035955  0.97382452     1.04300
C703        C  0.24576285  0.91208597  0.97495197     0.92500
C704        C  0.24574932  0.60772290  0.97495188     0.91700
C705        C  0.24034335  0.01084272  0.02052201     0.83800
C706        C  0.25119095  0.00970962  0.92923874     0.90100
O707        O  0.20918986  0.75953066  0.93928167    -0.73700
O708        O  0.20066181  0.76048016  0.00890144    -0.74600
O709        O  0.20465875  0.83452852  0.97394872    -0.63300
O710        O  0.20463434  0.68579987  0.97416801    -0.71700
O711        O  0.28710045  0.68503673  0.97624211    -0.71200
O712        O  0.28712685  0.83392722  0.97582846    -0.62500
O713        O  0.28307330  0.75993212  0.01072108    -0.75000
O714        O  0.29160137  0.75855571  0.94132863    -0.73800
Cu715      Cu  0.20189168  0.76013318  0.97399752     1.04600
Cu716      Cu  0.29008246  0.75937650  0.97611627     1.04300
C717        C  0.25168667  0.75854738  0.92935460     0.92500
C718        C  0.24076878  0.76031839  0.02077866     0.91700
C719        C  0.24586052  0.85766533  0.97490108     0.83800
C720        C  0.24583357  0.66203020  0.97514399     0.90100
O721        O  0.03820086  0.92231736  0.78327137    -0.73700
O722        O  0.03796452  0.57115051  0.78265239    -0.74600
O723        O  0.03748221  0.49735428  0.81765585    -0.63300
O724        O  0.03900187  0.49656171  0.74811296    -0.71700
O725        O  0.45639290  0.49755332  0.74766243    -0.71200
O726        O  0.45498768  0.49678080  0.81755515    -0.62500
O727        O  0.45533461  0.57155633  0.78264826    -0.75000
O728        O  0.45559362  0.92275828  0.78271311    -0.73800
Cu729      Cu  0.04099999  0.49681247  0.78292999     1.04600
Cu730      Cu  0.45265189  0.49718471  0.78262078     1.04300
C731        C  0.49688953  0.89905845  0.78320262     0.92500
C732        C  0.49658452  0.59470043  0.78255007     0.91700
C733        C  0.99625143  0.49670862  0.82862564     0.83800
C734        C  0.49799801  0.49744909  0.73696255     0.90100
O735        O  0.45528445  0.67279053  0.78237548    -0.73700
O736        O  0.45555824  0.82159547  0.78339303    -0.74600
O737        O  0.45591235  0.74858295  0.74807635    -0.63300
O738        O  0.45503176  0.74558776  0.81768193    -0.71700
O739        O  0.03764775  0.74455189  0.81789365    -0.71200
O740        O  0.03855679  0.74811385  0.74833383    -0.62500
O741        O  0.03818102  0.82094821  0.78374694    -0.75000
O742        O  0.03792315  0.67216152  0.78249226    -0.73800
Cu743      Cu  0.45254645  0.74720017  0.78287716     1.04600
Cu744      Cu  0.04095669  0.74645568  0.78312884     1.04300
C745        C  0.99660959  0.64913019  0.78243294     0.92500
C746        C  0.99692056  0.84475067  0.78353692     0.91700
C747        C  0.99739995  0.74891790  0.73732348     0.83800
C748        C  0.99626069  0.74419260  0.82874303     0.90100
O749        O  0.21245145  0.50193097  0.74893022    -0.73700
O750        O  0.21517615  0.50361950  0.81843557    -0.74600
O751        O  0.21368852  0.57696670  0.78347367    -0.63300
O752        O  0.21383414  0.92824320  0.78399677    -0.71700
O753        O  0.29640238  0.92755960  0.78358431    -0.71200
O754        O  0.29625868  0.57644583  0.78265119    -0.62500
O755        O  0.29764958  0.50369608  0.81790221    -0.75000
O756        O  0.29505845  0.50081474  0.74828409    -0.73800
Cu757      Cu  0.21093277  0.50265837  0.78373024     1.04600
Cu758      Cu  0.29926264  0.50204834  0.78307619     1.04300
C759        C  0.25334502  0.50108671  0.73771825     0.92500
C760        C  0.25672814  0.50460654  0.82914088     0.91700
C761        C  0.25492620  0.60009946  0.78313485     0.83800
C762        C  0.25509468  0.90446957  0.78376716     0.90100
O763        O  0.21535057  0.75290245  0.81862925    -0.73700
O764        O  0.21103302  0.75209344  0.74916836    -0.74600
O765        O  0.21350522  0.67811048  0.78396582    -0.63300
O766        O  0.21362408  0.82702682  0.78389010    -0.71700
O767        O  0.29617570  0.82622263  0.78302959    -0.71200
O768        O  0.29606800  0.67751315  0.78300047    -0.62500
O769        O  0.29360107  0.75141159  0.74806944    -0.75000
O770        O  0.29786222  0.75200841  0.81793714    -0.73800
Cu771      Cu  0.21053492  0.75254878  0.78395516     1.04600
Cu772      Cu  0.29885323  0.75176203  0.78296450     1.04300
C773        C  0.25699847  0.75295589  0.82925373     0.92500
C774        C  0.25158745  0.75130290  0.73771387     0.91700
C775        C  0.25481771  0.65442097  0.78337339     0.83800
C776        C  0.25496365  0.85005700  0.78357764     0.90100
O777        O  0.49992192  0.95810772  0.70026393    -0.73700
O778        O  0.50322541  0.96125228  0.63057916    -0.74600
O779        O  0.07604055  0.96063767  0.66619120    -0.63300
O780        O  0.42701281  0.95965262  0.66486209    -0.71700
O781        O  0.42640778  0.54203415  0.66572037    -0.71200
O782        O  0.07500140  0.54302420  0.66675452    -0.62500
O783        O  0.50205952  0.54362376  0.63118023    -0.75000
O784        O  0.49921558  0.54047656  0.70110111    -0.73800
Cu785      Cu  0.50159190  0.95702628  0.66541415     1.04600
Cu786      Cu  0.50061514  0.54517219  0.66619383     1.04300
C787        C  0.49893110  0.49873916  0.71160057     0.92500
C788        C  0.50332193  0.50277931  0.61993515     0.91700
C789        C  0.09893405  0.50196611  0.66667086     0.83800
C790        C  0.40330811  0.50089246  0.66541589     0.90100
O791        O  0.07291347  0.70828191  0.66651022    -0.73700
O792        O  0.42383452  0.70802099  0.66634018    -0.74600
O793        O  0.49826310  0.70724908  0.63169836    -0.63300
O794        O  0.99816594  0.70810747  0.70114401    -0.71700
O795        O  0.99761773  0.79052553  0.70112785    -0.71200
O796        O  0.99718197  0.78959995  0.63137807    -0.62500
O797        O  0.42337189  0.79043304  0.66627495    -0.75000
O798        O  0.07194268  0.79067025  0.66620845    -0.73800
Cu799      Cu  0.99835446  0.70503807  0.66643424     1.04600
Cu800      Cu  0.99754522  0.79320511  0.66623100     1.04300
C801        C  0.09586070  0.74959474  0.66645085     0.92500
C802        C  0.40022098  0.74933160  0.66629014     0.91700
C803        C  0.99735525  0.74818937  0.62059108     0.83800
C804        C  0.99776013  0.74928187  0.71202663     0.90100
O805        O  0.32546107  0.96028509  0.66539765    -0.73700
O806        O  0.17689460  0.96098016  0.66748123    -0.74600
O807        O  0.24824830  0.96239384  0.63184496    -0.63300
O808        O  0.25334016  0.96009121  0.70139606    -0.71700
O809        O  0.25066149  0.54247749  0.70167179    -0.71200
O810        O  0.25307161  0.54390803  0.63228609    -0.62500
O811        O  0.17660661  0.54332074  0.66652758    -0.75000
O812        O  0.32565300  0.54256960  0.66714264    -0.73800
Cu813      Cu  0.25099835  0.95806139  0.66653761     1.04600
Cu814      Cu  0.25136825  0.54596078  0.66695172     1.04300
C815        C  0.34896202  0.50120318  0.66595600     0.92500
C816        C  0.15332086  0.50219270  0.66695792     0.91700
C817        C  0.25102716  0.50343904  0.62090542     0.83800
C818        C  0.25238587  0.50115321  0.71242559     0.90100
O819        O  0.24802309  0.79171663  0.63195086    -0.73700
O820        O  0.24848563  0.79173365  0.70139396    -0.74600
O821        O  0.32240464  0.79103068  0.66653626    -0.63300
O822        O  0.17331951  0.79121430  0.66663569    -0.71700
O823        O  0.17412092  0.70883203  0.66691015    -0.71200
O824        O  0.32266578  0.70862655  0.66621350    -0.62500
O825        O  0.24964095  0.70933664  0.70156490    -0.75000
O826        O  0.24750113  0.70949934  0.63170937    -0.73800
Cu827      Cu  0.24797240  0.79428818  0.66664134     1.04600
Cu828      Cu  0.24845566  0.70616954  0.66661009     1.04300
C829        C  0.24763740  0.75081855  0.62082322     0.92500
C830        C  0.24980735  0.75070062  0.71238542     0.91700
C831        C  0.34591618  0.74967300  0.66632312     0.83800
C832        C  0.15028373  0.74994334  0.66668075     0.90100
C833        C  0.28184156  0.71778028  0.86787642    -0.02600
C834        C  0.25745419  0.75498980  0.85486669     0.07100
C835        C  0.23229405  0.79388707  0.86641866    -0.02700
C836        C  0.23094923  0.79523178  0.89075089    -0.02700
C837        C  0.25458267  0.75763954  0.90377337     0.07300
C838        C  0.28043999  0.71908961  0.89226090    -0.02900
Br839      Br  0.31178929  0.66650282  0.90980826    -0.01400
Br840      Br  0.31475405  0.66337742  0.85232937    -0.01500
Br841      Br  0.19856482  0.85004755  0.90626147    -0.01400
Br842      Br  0.20115255  0.84670677  0.84894995    -0.01400
C843        C  0.28364260  0.97366636  0.89211842    -0.02600
C844        C  0.25412321  0.50946427  0.90365619     0.07100
C845        C  0.22713914  0.54487343  0.89064991    -0.02700
C846        C  0.22849119  0.54361542  0.86630813    -0.02700
C847        C  0.25717752  0.50715606  0.85474813     0.07300
C848        C  0.28550418  0.97279909  0.86776776    -0.02900
Br849      Br  0.32515833  0.92273891  0.85237269    -0.01400
Br850      Br  0.31925673  0.92356372  0.90952889    -0.01500
Br851      Br  0.19282243  0.59372689  0.84890399    -0.01400
Br852      Br  0.19006565  0.59684444  0.90611342    -0.01400
C853        C  0.02119376  0.70188658  0.89039034    -0.02600
C854        C  0.99777293  0.74001364  0.90318617     0.07100
C855        C  0.47277942  0.77877424  0.89145941    -0.02700
C856        C  0.47192167  0.77982930  0.86711005    -0.02700
C857        C  0.99605850  0.74221705  0.85431883     0.07300
C858        C  0.02029472  0.70293792  0.86602964    -0.02900
Br859      Br  0.05034998  0.64919788  0.84876519    -0.01400
Br860      Br  0.05272025  0.64695699  0.90623425    -0.01500
Br861      Br  0.43996429  0.83451052  0.85130163    -0.01400
Br862      Br  0.44204925  0.83216863  0.90868931    -0.01400
C863        C  0.96835872  0.52697841  0.89174280    -0.02600
C864        C  0.99907644  0.49219576  0.90331748     0.07100
C865        C  0.52831081  0.95866301  0.89026603    -0.02700
C866        C  0.52704285  0.95998327  0.86591689    -0.02700
C867        C  0.99657884  0.49496209  0.85431235     0.07300
C868        C  0.96696843  0.52821194  0.86736533    -0.02900
Br869      Br  0.92623427  0.57744089  0.85201703    -0.01400
Br870      Br  0.93026742  0.57526526  0.90916706    -0.01500
Br871      Br  0.56536162  0.91171104  0.84860316    -0.01400
Br872      Br  0.56856777  0.90897112  0.90563562    -0.01400
C873        C  0.28110449  0.72157273  0.58256007    -0.02600
C874        C  0.24728275  0.75147831  0.59514324     0.07100
C875        C  0.21338360  0.78237155  0.58307080    -0.02700
C876        C  0.21246767  0.78236870  0.55869821    -0.02700
C877        C  0.24546511  0.75153824  0.54612671     0.07300
C878        C  0.28015351  0.72152681  0.55819052    -0.02900
Br879      Br  0.32857679  0.68206535  0.54146176    -0.01400
Br880      Br  0.33112520  0.68273693  0.59855793    -0.01500
Br881      Br  0.16389940  0.82300356  0.54270838    -0.01400
Br882      Br  0.16620961  0.82336755  0.59974474    -0.01400
C883        C  0.23522588  0.04607352  0.58239092    -0.02600
C884        C  0.25240169  0.50405245  0.59498128     0.07100
C885        C  0.27128328  0.46260566  0.58254461    -0.02700
C886        C  0.27209508  0.46273925  0.55815944    -0.02700
C887        C  0.25528489  0.00490365  0.54555733     0.07300
C888        C  0.23680715  0.04654658  0.55799068    -0.02900
Br889      Br  0.20976465  0.10414409  0.54211905     0.05000
Br890      Br  0.20651541  0.10329462  0.59792610    -0.01500
Br891      Br  0.29840713  0.40425180  0.54269425    -0.01400
Br892      Br  0.29971025  0.40553223  0.59836504    -0.01400
C893        C  0.03380366  0.72239621  0.58251133    -0.02600
C894        C  0.99620187  0.74749955  0.59500748     0.07100
C895        C  0.45711589  0.77138551  0.58297802    -0.02700
C896        C  0.45600543  0.77074936  0.55862781    -0.02700
C897        C  0.99416743  0.74656645  0.54614486     0.07300
C898        C  0.03284517  0.72200095  0.55815634    -0.02900
Br899      Br  0.08595313  0.68963068  0.54129307    -0.01400
Br900      Br  0.08810795  0.69043146  0.59867794    -0.01500
Br901      Br  0.40060172  0.80070249  0.54242574    -0.01400
Br902      Br  0.40362834  0.80302571  0.59984108    -0.01400
C903        C  0.46125999  0.50414515  0.55724386    -0.02600
C904        C  0.50712231  0.00370290  0.54547559     0.07100
C905        C  0.05181354  0.00206502  0.55818860    -0.02700
C906        C  0.05062219  0.00205215  0.58258604    -0.02700
C907        C  0.50472780  0.50339971  0.59434740     0.07300
C908        C  0.46007575  0.50397755  0.58161603    -0.02900
Br909      Br  0.39735647  0.50374246  0.59768842    -0.01400
Br910      Br  0.40011240  0.50389520  0.53984921    -0.01500
Br911      Br  0.11168717  0.99949117  0.59998727    -0.01400
Br912      Br  0.11445605  0.99876700  0.54205422    -0.01400
C913        C  0.29157457  0.73245651  0.36743835    -0.02600
C914        C  0.24835823  0.74419618  0.35469729     0.07100
C915        C  0.20372544  0.75551357  0.36640490    -0.02700
C916        C  0.20236976  0.75558087  0.39074166    -0.02700
C917        C  0.24563927  0.74440443  0.40347969     0.07300
C918        C  0.29021002  0.73258590  0.39181361    -0.02900
Br919      Br  0.34969816  0.71833493  0.40932039    -0.01400
Br920      Br  0.35294222  0.71797612  0.35148027    -0.01500
Br921      Br  0.14097620  0.76979783  0.40673688    -0.01400
Br922      Br  0.14411735  0.76985432  0.34902545    -0.01400
C923        C  0.27992902  0.53712814  0.36520376    -0.02600
C924        C  0.25213461  0.00056199  0.35346606     0.07100
C925        C  0.22680959  0.96408286  0.36639851    -0.02700
C926        C  0.22916639  0.96425225  0.39073212    -0.02700
C927        C  0.25639451  0.00129980  0.40247614     0.07300
C928        C  0.28209762  0.53741058  0.38951546    -0.02900
Br929      Br  0.32362749  0.58569941  0.40472195    -0.01400
Br930      Br  0.31806353  0.58571304  0.34825174    -0.01500
Br931      Br  0.19268320  0.91431547  0.40763609    -0.01400
Br932      Br  0.18602031  0.91502834  0.35117013    -0.01400
C933        C  0.01857706  0.71124420  0.36672030    -0.02600
C934        C  0.99387680  0.74910898  0.35410332     0.07100
C935        C  0.46723896  0.78630451  0.36630426    -0.02700
C936        C  0.46575927  0.78582619  0.39069920    -0.02700
C937        C  0.99177681  0.74881605  0.40330457     0.07300
C938        C  0.01780450  0.71127224  0.39106831    -0.02900
Br939      Br  0.05506615  0.66029519  0.40728005    -0.01400
Br940      Br  0.05608622  0.65969283  0.35107519    -0.01500
Br941      Br  0.42444743  0.83414724  0.40651533    -0.01400
Br942      Br  0.42959628  0.83672603  0.34993063    -0.01400
C943        C  0.04631114  0.01604644  0.36557827    -0.02600
C944        C  0.50205052  0.00353437  0.35394698     0.07100
C945        C  0.45956360  0.49049552  0.36673963    -0.02700
C946        C  0.46112460  0.49037426  0.39108591    -0.02700
C947        C  0.50510609  0.00366022  0.40273662     0.07300
C948        C  0.04783677  0.01608794  0.38994221    -0.02900
Br949      Br  0.10911271  0.03050272  0.40583604    -0.01400
Br950      Br  0.10542551  0.03089122  0.34807153    -0.01500
Br951      Br  0.40285882  0.47243572  0.40851867    -0.01400
Br952      Br  0.39897504  0.47377270  0.35079435    -0.01400
C953        C  0.26706783  0.79403751  0.08335283    -0.02600
C954        C  0.24056646  0.75701633  0.09531029     0.07100
C955        C  0.21222406  0.72238220  0.08271828    -0.02700
C956        C  0.21154830  0.72386578  0.05834969    -0.02700
C957        C  0.23867961  0.76043121  0.04639462     0.07300
C958        C  0.26561197  0.79608391  0.05902256    -0.02900
Br959      Br  0.29837884  0.84965619  0.04306928    -0.01400
Br960      Br  0.30399511  0.84344560  0.10023623    -0.01500
Br961      Br  0.17566079  0.67383519  0.04143215    -0.01400
Br962      Br  0.17651446  0.67089022  0.09873504    -0.01400
C963        C  0.26678993  0.54607808  0.05859566    -0.02600
C964        C  0.23818657  0.01150792  0.04609579     0.07100
C965        C  0.20966438  0.97618865  0.05815328    -0.02700
C966        C  0.21210035  0.97357700  0.08243846    -0.02700
C967        C  0.24158533  0.00737596  0.09489765     0.07300
C968        C  0.26868157  0.54389838  0.08290248    -0.02900
Br969      Br  0.30725912  0.59224286  0.09966754    -0.01400
Br970      Br  0.30082575  0.59876190  0.04255064    -0.01500
Br971      Br  0.17809242  0.92097382  0.09847863    -0.01400
Br972      Br  0.16824746  0.93010332  0.04157371    -0.01400
C973        C  0.48118716  0.70659879  0.08282812    -0.02600
C974        C  0.00924991  0.74262781  0.09467726     0.07100
C975        C  0.03803686  0.77665585  0.08195524    -0.02700
C976        C  0.03766251  0.77553322  0.05759202    -0.02700
C977        C  0.00890813  0.74003519  0.04575915     0.07300
C978        C  0.48115360  0.70518625  0.05848689    -0.02900
Br979      Br  0.44487316  0.65367590  0.04270285    -0.01400
Br980      Br  0.44454513  0.65723926  0.09989050    -0.01500
Br981      Br  0.07424922  0.82483565  0.04051510    -0.01400
Br982      Br  0.07602302  0.82676504  0.09776059    -0.01400
C983        C  0.03497668  0.52655590  0.05782977    -0.02600
C984        C  0.00781715  0.48976024  0.04603495     0.07100
C985        C  0.48131808  0.95396435  0.05878545    -0.02700
C986        C  0.48194843  0.95503652  0.08313092    -0.02700
C987        C  0.00842993  0.49232507  0.09491331     0.07300
C988        C  0.03501719  0.52800512  0.08218125    -0.02900
Br989      Br  0.06901762  0.58086886  0.09801569    -0.01400
Br990      Br  0.06990014  0.57695943  0.04070426    -0.01500
Br991      Br  0.44840614  0.90371415  0.10032282    -0.01400
Br992      Br  0.44565359  0.90202628  0.04302524    -0.01400
O993        O  0.96569681  0.99531777  0.13097964    -0.73700
O994        O  0.96123068  0.49691372  0.20037658    -0.74600
O995        O  0.96367772  0.07057717  0.16538642    -0.63300
O996        O  0.96381071  0.42165904  0.16584739    -0.71700
O997        O  0.54633869  0.42116479  0.16683049    -0.71200
O998        O  0.54621027  0.06986793  0.16639943    -0.62500
O999        O  0.54380678  0.49624172  0.20145263    -0.75000
O1000       O  0.54817644  0.99467761  0.13185709    -0.73800
Cu1001     Cu  0.96072228  0.99614718  0.16561189     1.04600
Cu1002     Cu  0.54903160  0.49548997  0.16668604     1.04300
C1003       C  0.50744103  0.99436529  0.12046658     0.92500
C1004       C  0.00183768  0.49699212  0.21179770     0.91700
C1005       C  0.50497420  0.09366160  0.16589037     0.83800
C1006       C  0.50511924  0.39802868  0.16624100     0.90100
O1007       O  0.54645515  0.17101402  0.16659912    -0.73700
O1008       O  0.54655237  0.31992148  0.16637112    -0.74600
O1009       O  0.54447532  0.24588289  0.20128165    -0.63300
O1010       O  0.54870820  0.24473455  0.13171598    -0.71700
O1011       O  0.96628085  0.24591585  0.13076583    -0.71200
O1012       O  0.96189844  0.24650613  0.20023046    -0.62500
O1013       O  0.96402349  0.32052358  0.16545907    -0.75000
O1014       O  0.96393115  0.17180937  0.16549833    -0.73800
Cu1015     Cu  0.54946459  0.24540386  0.16653026     1.04600
Cu1016     Cu  0.96117368  0.24622982  0.16544547     1.04300
C1017       C  0.50512521  0.14802725  0.16598040     0.92500
C1018       C  0.50524394  0.34366141  0.16600141     0.91700
C1019       C  0.50252275  0.24647356  0.21162948     0.83800
C1020       C  0.50806129  0.24474600  0.12026627     0.90100
O1021       O  0.78623563  0.42869371  0.16552303    -0.73700
O1022       O  0.78629699  0.07765879  0.16579471    -0.74600
O1023       O  0.78817524  0.50256622  0.20025949    -0.63300
O1024       O  0.78484568  0.50382463  0.13092149    -0.71700
O1025       O  0.70235004  0.50512531  0.13180861    -0.71200
O1026       O  0.70552700  0.50292794  0.20111754    -0.62500
O1027       O  0.70373790  0.07822284  0.16680756    -0.75000
O1028       O  0.70366326  0.42955805  0.16621012    -0.73800
Cu1029     Cu  0.78931307  0.50313647  0.16558224     1.04600
Cu1030     Cu  0.70094988  0.50394356  0.16649945     1.04300
C1031       C  0.74487914  0.40571586  0.16604157     0.92500
C1032       C  0.74495938  0.10135138  0.16631843     0.91700
C1033       C  0.74738471  0.50234918  0.21152002     0.83800
C1034       C  0.74306353  0.50521429  0.12042574     0.90100
O1035       O  0.78599923  0.17886889  0.16601247    -0.73700
O1036       O  0.78590757  0.32752988  0.16629163    -0.74600
O1037       O  0.78732911  0.25253133  0.20109922    -0.63300
O1038       O  0.78388655  0.25384563  0.13140660    -0.71700
O1039       O  0.70141245  0.25480690  0.13233845    -0.71200
O1040       O  0.70473467  0.25310556  0.20183994    -0.62500
O1041       O  0.70334947  0.32835927  0.16718265    -0.75000
O1042       O  0.70343538  0.17939482  0.16678993    -0.73800
Cu1043     Cu  0.78867410  0.25316540  0.16619237     1.04600
Cu1044     Cu  0.70035338  0.25391514  0.16708926     1.04300
C1045       C  0.74478593  0.15571915  0.16636738     0.92500
C1046       C  0.74468639  0.35135419  0.16652819     0.91700
C1047       C  0.74646112  0.25233733  0.21236833     0.83800
C1048       C  0.74204679  0.25497154  0.12090281     0.90100
O1049       O  0.57424108  0.45910225  0.28325529    -0.73700
O1050       O  0.92535461  0.45983632  0.28287569    -0.74600
O1051       O  0.00044291  0.45756466  0.24837445    -0.63300
O1052       O  0.99958131  0.46107719  0.31790030    -0.71700
O1053       O  0.00046710  0.04345517  0.31714817    -0.71200
O1054       O  0.99921158  0.03996765  0.24750756    -0.62500
O1055       O  0.92495936  0.04222533  0.28250389    -0.75000
O1056       O  0.57372876  0.04147924  0.28205072    -0.73800
Cu1057     Cu  0.99983144  0.45650545  0.28315369     1.04600
Cu1058     Cu  0.99948732  0.04467799  0.28228144     1.04300
C1059       C  0.59736456  0.50024587  0.28259039     0.92500
C1060       C  0.90172288  0.50112428  0.28256973     0.91700
C1061       C  0.00029277  0.49822619  0.23706259     0.83800
C1062       C  0.00057908  0.50270427  0.32843917     0.90100
O1063       O  0.00136150  0.20605562  0.24797720    -0.73700
O1064       O  0.99450037  0.20822267  0.31727291    -0.74600
O1065       O  0.92414407  0.20739220  0.28146945    -0.63300
O1066       O  0.57286496  0.20661304  0.28403249    -0.71700
O1067       O  0.57279868  0.28894388  0.28277879    -0.71200
O1068       O  0.92392554  0.28976440  0.28230117    -0.62500
O1069       O  0.49811027  0.29008049  0.31720803    -0.75000
O1070       O  0.49922157  0.28847953  0.24759794    -0.73800
Cu1071     Cu  0.99828701  0.20421849  0.28269287     1.04600
Cu1072     Cu  0.49848087  0.29223693  0.28241917     1.04300
C1073       C  0.00098380  0.24702084  0.23691152     0.92500
C1074       C  0.49550409  0.24920708  0.32830588     0.91700
C1075       C  0.90063668  0.24868137  0.28199077     0.83800
C1076       C  0.59626446  0.24763856  0.28362524     0.90100
O1077       O  0.82438363  0.45990862  0.28156530    -0.73700
O1078       O  0.67562545  0.45927447  0.28276025    -0.74600
O1079       O  0.74854862  0.46027990  0.24737562    -0.63300
O1080       O  0.75204984  0.45936419  0.31674183    -0.71700
O1081       O  0.74745205  0.04134093  0.31680093    -0.71200
O1082       O  0.74931870  0.04272990  0.24766746    -0.62500
O1083       O  0.67448191  0.04165615  0.28192865    -0.75000
O1084       O  0.82334233  0.04225542  0.28269515    -0.73800
Cu1085     Cu  0.75013314  0.45678610  0.28207928     1.04600
Cu1086     Cu  0.74865026  0.04486778  0.28226993     1.04300
C1087       C  0.84729879  0.50113960  0.28226026     0.92500
C1088       C  0.65166935  0.50035660  0.28242633     0.91700
C1089       C  0.74856750  0.50172098  0.23668667     0.83800
C1090       C  0.75024308  0.50035667  0.32778941     0.90100
O1091       O  0.74770749  0.20907804  0.24806747    -0.73700
O1092       O  0.75062414  0.20474561  0.31775809    -0.74600
O1093       O  0.67454208  0.20641225  0.28354131    -0.63300
O1094       O  0.82337788  0.20738439  0.28216087    -0.71700
O1095       O  0.82248231  0.28974451  0.28347957    -0.71200
O1096       O  0.67367711  0.28879924  0.28412386    -0.62500
O1097       O  0.74852032  0.28710990  0.31869648    -0.75000
O1098       O  0.74742420  0.29145887  0.24908354    -0.73800
Cu1099     Cu  0.74912247  0.20399905  0.28286079     1.04600
Cu1100     Cu  0.74802148  0.29214956  0.28391376     1.04300
C1101       C  0.74733102  0.25090595  0.23767861     0.92500
C1102       C  0.74959265  0.24535314  0.32915366     0.91700
C1103       C  0.65068073  0.24755882  0.28385336     0.83800
C1104       C  0.84631374  0.24864467  0.28250906     0.90100
O1105       O  0.00736853  0.04524919  0.43915975    -0.73700
O1106       O  0.00729442  0.04524405  0.50901407    -0.74600
O1107       O  0.58169319  0.04552094  0.47402543    -0.63300
O1108       O  0.93287176  0.04536732  0.47399942    -0.71700
O1109       O  0.93343562  0.46297951  0.47456734    -0.71200
O1110       O  0.58227208  0.46312856  0.47352109    -0.62500
O1111       O  0.00890197  0.46285887  0.50893127    -0.75000
O1112       O  0.00647046  0.46287203  0.43927952    -0.73800
Cu1113     Cu  0.00731099  0.04826763  0.47406182     1.04600
Cu1114     Cu  0.00785326  0.46010843  0.47408302     1.04300
C1115       C  0.00650572  0.50397488  0.42828886     0.92500
C1116       C  0.00806992  0.50397254  0.51991220     0.91700
C1117       C  0.60538656  0.50430666  0.47367501     0.83800
C1118       C  0.90974013  0.50420711  0.47426778     0.90100
O1119       O  0.49040165  0.20813592  0.44015376    -0.73700
O1120       O  0.49463116  0.20619985  0.50944542    -0.74600
O1121       O  0.91875855  0.20733917  0.47554627    -0.63300
O1122       O  0.56754089  0.20691509  0.47398624    -0.71700
O1123       O  0.56731793  0.28924142  0.47517585    -0.71200
O1124       O  0.91847286  0.28971565  0.47472364    -0.62500
O1125       O  0.49244040  0.28852284  0.50978360    -0.75000
O1126       O  0.49368388  0.29004492  0.44015826    -0.73800
Cu1127     Cu  0.49290148  0.20431131  0.47475992     1.04600
Cu1128     Cu  0.49293399  0.29230563  0.47498450     1.04300
C1129       C  0.49179935  0.24908028  0.42908261     0.92500
C1130       C  0.49370451  0.24712155  0.52056282     0.91700
C1131       C  0.89523793  0.24861721  0.47511838     0.83800
C1132       C  0.59088186  0.24797397  0.47453694     0.90100
O1133       O  0.75970014  0.04570282  0.50839481    -0.73700
O1134       O  0.75496882  0.04391717  0.43887458    -0.74600
O1135       O  0.68291560  0.04536658  0.47444099    -0.63300
O1136       O  0.83168476  0.04534670  0.47282000    -0.71700
O1137       O  0.83215794  0.46317555  0.47532337    -0.71200
O1138       O  0.68340276  0.46309607  0.47271464    -0.62500
O1139       O  0.76089978  0.46203017  0.43949324    -0.75000
O1140       O  0.75392797  0.46428036  0.50851606    -0.73800
Cu1141     Cu  0.75732736  0.04803421  0.47360283     1.04600
Cu1142     Cu  0.75770423  0.46032614  0.47402796     1.04300
C1143       C  0.75639752  0.50504569  0.51961914     0.92500
C1144       C  0.75763852  0.50251464  0.42815272     0.91700
C1145       C  0.65973960  0.50428438  0.47356785     0.83800
C1146       C  0.85535684  0.50422709  0.47415329     0.90100
O1147       O  0.66841808  0.28910951  0.47442619    -0.73700
O1148       O  0.81720828  0.28975369  0.47413206    -0.74600
O1149       O  0.74265104  0.28740936  0.43942461    -0.63300
O1150       O  0.74369851  0.29116300  0.50904639    -0.71700
O1151       O  0.74288902  0.20896951  0.50986871    -0.71200
O1152       O  0.74504687  0.20503891  0.44035113    -0.62500
O1153       O  0.81797021  0.20740183  0.47560018    -0.75000
O1154       O  0.66914020  0.20673063  0.47467501    -0.73800
Cu1155     Cu  0.74286955  0.29225566  0.47421193     1.04600
Cu1156     Cu  0.74371578  0.20416536  0.47515726     1.04300
C1157       C  0.64533226  0.24790611  0.47452593     0.92500
C1158       C  0.84095952  0.24861471  0.47497440     0.91700
C1159       C  0.74436886  0.24565501  0.42897741     0.83800
C1160       C  0.74380981  0.25055167  0.52045730     0.90100
O1161       O  0.96015606  0.99019276  0.94050183    -0.73700
O1162       O  0.96448808  0.98985808  0.01000610    -0.74600
O1163       O  0.96218797  0.06439461  0.97529797    -0.63300
O1164       O  0.96242653  0.41558461  0.97518386    -0.71700
O1165       O  0.54488492  0.41502642  0.97381250    -0.71200
O1166       O  0.54469342  0.06383457  0.97448423    -0.62500
O1167       O  0.54691865  0.98869739  0.00893465    -0.75000
O1168       O  0.54250550  0.99063651  0.93940512    -0.73800
Cu1169     Cu  0.95944140  0.98999319  0.97529469     1.04600
Cu1170     Cu  0.54763568  0.98947819  0.97412877     1.04300
C1171       C  0.50061191  0.99088092  0.92895769     0.92500
C1172       C  0.50633275  0.98928768  0.02042806     0.91700
C1173       C  0.50338333  0.08751002  0.97484791     0.83800
C1174       C  0.50364887  0.39187375  0.97444514     0.90100
O1175       O  0.95940485  0.24001452  0.94040387    -0.73700
O1176       O  0.96513138  0.24029049  0.00985506    -0.74600
O1177       O  0.96240593  0.31447773  0.97507812    -0.63300
O1178       O  0.96217755  0.16566100  0.97526701    -0.71700
O1179       O  0.54465024  0.16487676  0.97390532    -0.71200
O1180       O  0.54486553  0.31368083  0.97368022    -0.62500
O1181       O  0.54752770  0.23927411  0.00851214    -0.75000
O1182       O  0.54182391  0.23901738  0.93898675    -0.73800
Cu1183     Cu  0.95940538  0.24011902  0.97519649     1.04600
Cu1184     Cu  0.54760450  0.23918691  0.97370970     1.04300
C1185       C  0.49969819  0.23955699  0.92874643     0.92500
C1186       C  0.50712686  0.23980528  0.02014585     0.91700
C1187       C  0.50363924  0.33748983  0.97438168     0.83800
C1188       C  0.50336884  0.14185461  0.97467992     0.90100
O1189       O  0.78704315  0.43521990  0.97584260    -0.73700
O1190       O  0.78701821  0.08396238  0.97596760    -0.74600
O1191       O  0.78276817  0.00975757  0.01049966    -0.63300
O1192       O  0.79115991  0.50977652  0.94120918    -0.71700
O1193       O  0.70878380  0.50979437  0.93915684    -0.71200
O1194       O  0.70037712  0.51111987  0.00861704    -0.62500
O1195       O  0.70457148  0.08469543  0.97374177    -0.75000
O1196       O  0.70456421  0.43581636  0.97407410    -0.73800
Cu1197     Cu  0.78984268  0.00963305  0.97595523     1.04600
Cu1198     Cu  0.70166452  0.51035203  0.97381367     1.04300
C1199       C  0.74583388  0.41208044  0.97493604     0.92500
C1200       C  0.74581474  0.10771725  0.97494165     0.91700
C1201       C  0.74042540  0.51081543  0.02050938     0.83800
C1202       C  0.75125182  0.50971733  0.92922590     0.90100
O1203       O  0.70926301  0.25953327  0.93926727    -0.73700
O1204       O  0.70071546  0.26047673  0.00888534    -0.74600
O1205       O  0.70472694  0.33452525  0.97393384    -0.63300
O1206       O  0.70469930  0.18579543  0.97415251    -0.71700
O1207       O  0.78716450  0.18503159  0.97623364    -0.71200
O1208       O  0.78719474  0.33392099  0.97581747    -0.62500
O1209       O  0.78312607  0.25992858  0.01071191    -0.75000
O1210       O  0.79167449  0.25855006  0.94131903    -0.73800
Cu1211     Cu  0.70195674  0.26013057  0.97398214     1.04600
Cu1212     Cu  0.79014697  0.25937097  0.97610693     1.04300
C1213       C  0.75176237  0.25855123  0.92934293     0.92500
C1214       C  0.74081747  0.26031474  0.02076602     0.91700
C1215       C  0.74592978  0.35766034  0.97488708     0.83800
C1216       C  0.74589791  0.16202515  0.97513270     0.90100
O1217       O  0.53815339  0.42221747  0.78326401    -0.73700
O1218       O  0.53791654  0.07105203  0.78264772    -0.74600
O1219       O  0.53741623  0.99725191  0.81764888    -0.63300
O1220       O  0.53897657  0.99646992  0.74810742    -0.71700
O1221       O  0.95641727  0.99764475  0.74767814    -0.71200
O1222       O  0.95505264  0.99688383  0.81757088    -0.62500
O1223       O  0.95538090  0.07165558  0.78266254    -0.75000
O1224       O  0.95564083  0.42285689  0.78273022    -0.73800
Cu1225     Cu  0.54095316  0.99671386  0.78292419     1.04600
Cu1226     Cu  0.95269770  0.99728345  0.78263694     1.04300
C1227       C  0.99693731  0.39915737  0.78321398     0.92500
C1228       C  0.99663085  0.09479961  0.78255990     0.91700
C1229       C  0.49618013  0.99660691  0.82861416     0.83800
C1230       C  0.99801611  0.99753441  0.73697310     0.90100
O1231       O  0.95533152  0.17288991  0.78239223    -0.73700
O1232       O  0.95560693  0.32169431  0.78340746    -0.74600
O1233       O  0.95593500  0.24867600  0.74809164    -0.63300
O1234       O  0.95510550  0.24569005  0.81769717    -0.71700
O1235       O  0.53757657  0.24444898  0.81788946    -0.71200
O1236       O  0.53852784  0.24801968  0.74832967    -0.62500
O1237       O  0.53813122  0.32084843  0.78374359    -0.75000
O1238       O  0.53787397  0.17206260  0.78248678    -0.73800
Cu1239     Cu  0.95259462  0.24729917  0.78289303     1.04600
Cu1240     Cu  0.54090677  0.24635621  0.78312498     1.04300
C1241       C  0.49656061  0.14903116  0.78242268     0.92500
C1242       C  0.49687134  0.34465139  0.78352762     0.91700
C1243       C  0.49737712  0.24882955  0.73731447     0.83800
C1244       C  0.49618338  0.24409070  0.82873385     0.90100
O1245       O  0.71247959  0.00199203  0.74892236    -0.73700
O1246       O  0.71523681  0.00367775  0.81842500    -0.74600
O1247       O  0.71373317  0.07702904  0.78346578    -0.63300
O1248       O  0.71388027  0.42830594  0.78398853    -0.71700
O1249       O  0.79644839  0.42762317  0.78357004    -0.71200
O1250       O  0.79630284  0.07650929  0.78263382    -0.62500
O1251       O  0.79770981  0.00376239  0.81788557    -0.75000
O1252       O  0.79508641  0.00087417  0.74826763    -0.73800
Cu1253     Cu  0.71097899  0.00271962  0.78372149     1.04600
Cu1254     Cu  0.79930861  0.00211229  0.78305934     1.04300
C1255       C  0.75336743  0.00114321  0.73770634     0.92500
C1256       C  0.75679194  0.00466699  0.82912721     0.91700
C1257       C  0.75497051  0.10016243  0.78312311     0.83800
C1258       C  0.75514092  0.40453275  0.78375637     0.90100
O1259       O  0.71542232  0.25297087  0.81862593    -0.73700
O1260       O  0.71105441  0.25215339  0.74916629    -0.74600
O1261       O  0.71355110  0.17817428  0.78396405    -0.63300
O1262       O  0.71367105  0.32709038  0.78388558    -0.71700
O1263       O  0.79622222  0.32628553  0.78301535    -0.71200
O1264       O  0.79611313  0.17757555  0.78298483    -0.62500
O1265       O  0.79362183  0.25147339  0.74805550    -0.75000
O1266       O  0.79793411  0.25206755  0.81792216    -0.73800
Cu1267     Cu  0.71058158  0.25261305  0.78395283     1.04600
Cu1268     Cu  0.79889950  0.25182415  0.78294941     1.04300
C1269       C  0.75707751  0.25301804  0.82924418     0.92500
C1270       C  0.75160120  0.25136045  0.73770612     0.91700
C1271       C  0.75486267  0.15448404  0.78336383     0.83800
C1272       C  0.75501066  0.35012022  0.78356785     0.90100
O1273       O  0.99991852  0.45815964  0.70028109    -0.73700
O1274       O  0.00322254  0.46124208  0.63059468    -0.74600
O1275       O  0.57604586  0.46062810  0.66617400    -0.63300
O1276       O  0.92701129  0.45968039  0.66487586    -0.71700
O1277       O  0.92641203  0.04206483  0.66571939    -0.71200
O1278       O  0.57499468  0.04301640  0.66675094    -0.62500
O1279       O  0.00206880  0.04361554  0.63118279    -0.75000
O1280       O  0.99922023  0.04053099  0.70110334    -0.73800
Cu1281     Cu  0.00158783  0.45704542  0.66543072     1.04600
Cu1282     Cu  0.00062145  0.04519403  0.66619534     1.04300
C1283       C  0.99893519  0.99880292  0.71161062     0.92500
C1284       C  0.00332513  0.00276251  0.61994457     0.91700
C1285       C  0.59893368  0.00196226  0.66666059     0.83800
C1286       C  0.90330943  0.00092462  0.66541873     0.90100
O1287       O  0.57291405  0.20825575  0.66649639    -0.73700
O1288       O  0.92382540  0.20806786  0.66635370    -0.74600
O1289       O  0.99824979  0.20726421  0.63171326    -0.63300
O1290       O  0.49816374  0.20804278  0.70112946    -0.71700
O1291       O  0.49760560  0.29046088  0.70112472    -0.71200
O1292       O  0.49716951  0.28958122  0.63137363    -0.62500
O1293       O  0.92336692  0.29047986  0.66627738    -0.75000
O1294       O  0.57192837  0.29064416  0.66620440    -0.73800
Cu1295     Cu  0.49835335  0.20499784  0.66641971     1.04600
Cu1296     Cu  0.49753297  0.29316489  0.66622793     1.04300
C1297       C  0.59585378  0.24957345  0.66644230     0.92500
C1298       C  0.90021390  0.24937912  0.66629529     0.91700
C1299       C  0.49734997  0.24817660  0.62058140     0.83800
C1300       C  0.49775001  0.24920995  0.71201775     0.90100
O1301       O  0.82546565  0.46031323  0.66539367    -0.73700
O1302       O  0.67690090  0.46098649  0.66747366    -0.74600
O1303       O  0.74825495  0.46239576  0.63183784    -0.63300
O1304       O  0.75334727  0.46012812  0.70138944    -0.71700
O1305       O  0.75066149  0.04251686  0.70165658    -0.71200
O1306       O  0.75306517  0.04391453  0.63227178    -0.62500
O1307       O  0.67660091  0.04332967  0.66651395    -0.75000
O1308       O  0.82565058  0.04260145  0.66712909    -0.73800
Cu1309     Cu  0.75100482  0.45807975  0.66653138     1.04600
Cu1310     Cu  0.75136398  0.04598256  0.66693694     1.04300
C1311       C  0.84896314  0.00123569  0.66595030     0.92500
C1312       C  0.65332099  0.00219805  0.66694730     0.91700
C1313       C  0.75102351  0.00344122  0.62089443     0.83800
C1314       C  0.75239485  0.00119781  0.71241421     0.90100
O1315       O  0.74800562  0.29171817  0.63193951    -0.73700
O1316       O  0.74847033  0.29177304  0.70138249    -0.74600
O1317       O  0.82239021  0.29107064  0.66652684    -0.63300
O1318       O  0.67330244  0.29121192  0.66662449    -0.71700
O1319       O  0.67412365  0.20882983  0.66690738    -0.71200
O1320       O  0.82266566  0.20866631  0.66621292    -0.62500
O1321       O  0.74964448  0.20937612  0.70156235    -0.75000
O1322       O  0.74750134  0.20950068  0.63170672    -0.73800
Cu1323     Cu  0.74795526  0.29430805  0.66662992     1.04600
Cu1324     Cu  0.74845807  0.20618939  0.66660814     1.04300
C1325       C  0.74762584  0.25081468  0.62081606     0.92500
C1326       C  0.74980545  0.25074578  0.71237822     0.91700
C1327       C  0.84590897  0.24971680  0.66632108     0.83800
C1328       C  0.65027663  0.24993490  0.66667329     0.90100
C1329       C  0.78188836  0.21779695  0.86786125    -0.02600
C1330       C  0.75754813  0.25504453  0.85485651     0.07100
C1331       C  0.73243382  0.29396456  0.86641267    -0.02700
C1332       C  0.73107739  0.29528920  0.89074493    -0.02700
C1333       C  0.75466428  0.25765982  0.90376238     0.07300
C1334       C  0.78048167  0.21908996  0.89224572    -0.02900
Br1335     Br  0.81176283  0.16645519  0.90978768    -0.01400
Br1336     Br  0.81474239  0.16336953  0.85230656    -0.01500
Br1337     Br  0.69872904  0.35011738  0.90626266    -0.01400
Br1338     Br  0.70137117  0.34683781  0.84894898    -0.01400
C1339       C  0.78372980  0.47371672  0.89210126    -0.02600
C1340       C  0.75418072  0.00948273  0.90364258     0.07100
C1341       C  0.72717390  0.04488156  0.89063997    -0.02700
C1342       C  0.72853611  0.04364332  0.86629823    -0.02700
C1343       C  0.75724629  0.00720822  0.85473440     0.07300
C1344       C  0.78559436  0.47286524  0.86775061    -0.02900
Br1345     Br  0.82528142  0.42283785  0.85235027    -0.01400
Br1346     Br  0.81938049  0.42362857  0.90950499    -0.01500
Br1347     Br  0.69284741  0.09375074  0.84889976    -0.01400
Br1348     Br  0.69004784  0.09681019  0.90610779    -0.01400
C1349       C  0.52110061  0.20181332  0.89038687    -0.02600
C1350       C  0.49769224  0.23995624  0.90317752     0.07100
C1351       C  0.97286415  0.27883807  0.89147362    -0.02700
C1352       C  0.97201174  0.27991237  0.86712448    -0.02700
C1353       C  0.49596817  0.24212270  0.85430980     0.07300
C1354       C  0.52019655  0.20284626  0.86602598    -0.02900
Br1355     Br  0.55023467  0.14908608  0.84876869    -0.01400
Br1356     Br  0.55261899  0.14688896  0.90623846    -0.01500
Br1357     Br  0.94005292  0.33460324  0.85132406    -0.01400
Br1358     Br  0.94211963  0.33221288  0.90871130    -0.01400
C1359       C  0.46827986  0.02690916  0.89172670    -0.02600
C1360       C  0.49901019  0.99214447  0.90330604     0.07100
C1361       C  0.02837360  0.45872022  0.89027314    -0.02700
C1362       C  0.02712060  0.46006762  0.86592412    -0.02700
C1363       C  0.49649774  0.99486781  0.85430075     0.07300
C1364       C  0.46688623  0.02812467  0.86734914    -0.02900
Br1365     Br  0.42614630  0.07733924  0.85199403    -0.01400
Br1366     Br  0.43017582  0.07519780  0.90914391    -0.01500
Br1367     Br  0.06545920  0.41182178  0.84860443    -0.01400
Br1368     Br  0.06859701  0.40899478  0.90563709    -0.01400
C1369       C  0.78108394  0.22155640  0.58255270    -0.02600
C1370       C  0.74726259  0.25146284  0.59513577     0.07100
C1371       C  0.71335537  0.28234680  0.58306275    -0.02700
C1372       C  0.71243474  0.28233733  0.55869011    -0.02700
C1373       C  0.74543816  0.25151301  0.54611894     0.07300
C1374       C  0.78013088  0.22150729  0.55818309    -0.02900
Br1375     Br  0.82855770  0.18205020  0.54145441    -0.01400
Br1376     Br  0.83110629  0.18272264  0.59855038    -0.01500
Br1377     Br  0.66385182  0.32295310  0.54269943    -0.01400
Br1378     Br  0.66617738  0.32333964  0.59973597    -0.01400
C1379       C  0.73521615  0.54606617  0.58237934    -0.02600
C1380       C  0.75238783  0.00404743  0.59497004     0.07100
C1381       C  0.77126529  0.96259831  0.58253363    -0.02700
C1382       C  0.77207177  0.96272886  0.55814836    -0.02700
C1383       C  0.75526552  0.50489234  0.54554567     0.07300
C1384       C  0.73679369  0.54653752  0.55797912    -0.02900
Br1385     Br  0.70975080  0.60413541  0.54210750     0.05000
Br1386     Br  0.70651262  0.60329235  0.59791358    -0.01500
Br1387     Br  0.79837412  0.90423662  0.54268344    -0.01400
Br1388     Br  0.79969072  0.90552421  0.59835403    -0.01400
C1389       C  0.53380598  0.22240098  0.58250018    -0.02600
C1390       C  0.49620157  0.24749892  0.59499724     0.07100
C1391       C  0.95709750  0.27137643  0.58298844    -0.02700
C1392       C  0.95598714  0.27073825  0.55863840    -0.02700
C1393       C  0.49416769  0.24657091  0.54613409     0.07300
C1394       C  0.53284754  0.22200811  0.55814511    -0.02900
Br1395     Br  0.58595650  0.18964218  0.54128071    -0.01400
Br1396     Br  0.58811360  0.19043944  0.59866557    -0.01500
Br1397     Br  0.90058311  0.30068985  0.54243590    -0.01400
Br1398     Br  0.90360702  0.30301280  0.59985124    -0.01400
C1399       C  0.96125285  0.00410309  0.55725511    -0.02600
C1400       C  0.00711712  0.50367713  0.54548489     0.07100
C1401       C  0.55181997  0.50208783  0.55818041    -0.02700
C1402       C  0.55062466  0.50207856  0.58257791    -0.02700
C1403       C  0.00472704  0.00336595  0.59435694     0.07300
C1404       C  0.96007272  0.00393488  0.58162728    -0.02900
Br1405     Br  0.89735631  0.00369310  0.59770214    -0.01400
Br1406     Br  0.90010254  0.00384516  0.53986262    -0.01500
Br1407     Br  0.61168647  0.49951108  0.59998122    -0.01400
Br1408     Br  0.61446367  0.49876841  0.54204805    -0.01400
C1409       C  0.79157470  0.23244098  0.36742804    -0.02600
C1410       C  0.74835706  0.24417930  0.35468748     0.07100
C1411       C  0.70372686  0.25550302  0.36639583    -0.02700
C1412       C  0.70237321  0.25557140  0.39073269    -0.02700
C1413       C  0.74564259  0.24439125  0.40347036     0.07300
C1414       C  0.79021189  0.23257032  0.39180345    -0.02900
Br1415     Br  0.84970045  0.21831553  0.40930921    -0.01400
Br1416     Br  0.85294338  0.21796862  0.35146903    -0.01500
Br1417     Br  0.64098153  0.26979380  0.40672844    -0.01400
Br1418     Br  0.64412023  0.26985504  0.34901712    -0.01400
C1419       C  0.77994701  0.03713933  0.36519384    -0.02600
C1420       C  0.75214075  0.50059043  0.35345544     0.07100
C1421       C  0.72681701  0.46410988  0.36638761    -0.02700
C1422       C  0.72918019  0.46427370  0.39072085    -0.02700
C1423       C  0.75641604  0.50131509  0.40246496     0.07300
C1424       C  0.78212538  0.03741173  0.38950552    -0.02900
Br1425     Br  0.82368305  0.08567449  0.40471337    -0.01400
Br1426     Br  0.81808638  0.08572003  0.34824202    -0.01500
Br1427     Br  0.69269808  0.41433484  0.40762409    -0.01400
Br1428     Br  0.68602394  0.41505736  0.35115967    -0.01400
C1429       C  0.51857455  0.21122917  0.36670962    -0.02600
C1430       C  0.49387760  0.24909379  0.35409159     0.07100
C1431       C  0.96723448  0.28631694  0.36631725    -0.02700
C1432       C  0.96575390  0.28583472  0.39071225    -0.02700
C1433       C  0.49176912  0.24880380  0.40329276     0.07300
C1434       C  0.51779825  0.21125869  0.39105772    -0.02900
Br1435     Br  0.55505887  0.16028370  0.40727124    -0.01400
Br1436     Br  0.55608452  0.15967779  0.35106527    -0.01500
Br1437     Br  0.92443606  0.33414846  0.40652992    -0.01400
Br1438     Br  0.92959388  0.33674207  0.34994532    -0.01400
C1439       C  0.54631111  0.51602884  0.36557012    -0.02600
C1440       C  0.00205312  0.50355403  0.35395626     0.07100
C1441       C  0.95956627  0.99050544  0.36675046    -0.02700
C1442       C  0.96113148  0.99038219  0.39109664    -0.02700
C1443       C  0.00511706  0.50368155  0.40274606     0.07300
C1444       C  0.54783374  0.51606860  0.38993388    -0.02900
Br1445     Br  0.60910881  0.53047831  0.40582929    -0.01400
Br1446     Br  0.60542613  0.53087879  0.34806490    -0.01500
Br1447     Br  0.90287328  0.97242697  0.40853104    -0.01400
Br1448     Br  0.89897738  0.97377517  0.35080738    -0.01400
C1449       C  0.76709098  0.29401955  0.08334481    -0.02600
C1450       C  0.74057681  0.25700105  0.09529803     0.07100
C1451       C  0.71222512  0.22238178  0.08270150    -0.02700
C1452       C  0.71156502  0.22386748  0.05833281    -0.02700
C1453       C  0.73871590  0.26042493  0.04638195     0.07300
C1454       C  0.76564882  0.29607011  0.05901434    -0.02900
Br1455     Br  0.79843545  0.34963823  0.04306691    -0.01400
Br1456     Br  0.80401159  0.34342280  0.10023456    -0.01500
Br1457     Br  0.67567327  0.17384765  0.04140977    -0.01400
Br1458     Br  0.67647428  0.17090998  0.09871192    -0.01400
C1459       C  0.76688470  0.04600976  0.05858813    -0.02600
C1460       C  0.73827399  0.51145896  0.04608342     0.07100
C1461       C  0.70973987  0.47614022  0.05813550    -0.02700
C1462       C  0.71216359  0.47351969  0.08242088    -0.02700
C1463       C  0.74165517  0.50730396  0.09488552     0.07300
C1464       C  0.76876959  0.04381663  0.08289470    -0.02900
Br1465     Br  0.80737447  0.09213003  0.09966565    -0.01400
Br1466     Br  0.80094829  0.09868721  0.04255130    -0.01500
Br1467     Br  0.67812779  0.42092412  0.09845377    -0.01400
Br1468     Br  0.66832579  0.43006420  0.04154808    -0.01400
C1469       C  0.98114011  0.20662282  0.08283313    -0.02600
C1470       C  0.50920524  0.24268729  0.09466497     0.07100
C1471       C  0.53789468  0.27678694  0.08193775    -0.02700
C1472       C  0.53752416  0.27564286  0.05757471    -0.02700
C1473       C  0.50886746  0.24005620  0.04574902     0.07300
C1474       C  0.98110653  0.20522771  0.05849156    -0.02900
Br1475     Br  0.94470350  0.15381222  0.04270089    -0.01400
Br1476     Br  0.94437338  0.15733741  0.09988422    -0.01500
Br1477     Br  0.57397462  0.32502715  0.04048616    -0.01400
Br1478     Br  0.57573117  0.32701640  0.09773745    -0.01400
C1479       C  0.53497377  0.02653359  0.05781326    -0.02600
C1480       C  0.50777501  0.98975890  0.04602353     0.07100
C1481       C  0.98139431  0.45393201  0.05879150    -0.02700
C1482       C  0.98202433  0.45498826  0.08313713    -0.02700
C1483       C  0.50839307  0.99235353  0.09490208     0.07300
C1484       C  0.53501968  0.02799580  0.08216459    -0.02900
Br1485     Br  0.56908804  0.08082700  0.09799057    -0.01400
Br1486     Br  0.56994617  0.07689456  0.04068152    -0.01500
Br1487     Br  0.94853587  0.40362149  0.10032274    -0.01400
Br1488     Br  0.94577660  0.40197356  0.04302309    -0.01400
O1489       O  0.96569610  0.49531758  0.13098012    -0.73700
O1490       O  0.96123078  0.99691384  0.20037618    -0.74600
O1491       O  0.96367731  0.57057709  0.16538687    -0.63300
O1492       O  0.96381098  0.92165918  0.16584691    -0.71700
O1493       O  0.54633897  0.92116481  0.16683012    -0.71200
O1494       O  0.54620982  0.56986786  0.16639977    -0.62500
O1495       O  0.54380686  0.99624178  0.20145235    -0.75000
O1496       O  0.54817575  0.49467750  0.13185746    -0.73800
Cu1497     Cu  0.96072189  0.49614705  0.16561235     1.04600
Cu1498     Cu  0.54903197  0.99549003  0.16668571     1.04300
C1499       C  0.50744026  0.49436517  0.12046702     0.92500
C1500       C  0.00183768  0.99699221  0.21179739     0.91700
C1501       C  0.50497374  0.59366153  0.16589078     0.83800
C1502       C  0.50511941  0.89802874  0.16624057     0.90100
O1503       O  0.54645478  0.67101392  0.16659940    -0.73700
O1504       O  0.54655239  0.81992142  0.16637079    -0.74600
O1505       O  0.54447520  0.74588348  0.20128161    -0.63300
O1506       O  0.54870800  0.74473372  0.13171597    -0.71700
O1507       O  0.96628072  0.74591535  0.13076582    -0.71200
O1508       O  0.96189836  0.74650684  0.20023044    -0.62500
O1509       O  0.96402361  0.82052371  0.16545878    -0.75000
O1510       O  0.96393086  0.67180942  0.16549858    -0.73800
Cu1511     Cu  0.54946443  0.74540375  0.16653024     1.04600
Cu1512     Cu  0.96117357  0.74622993  0.16544545     1.04300
C1513       C  0.50512480  0.64802720  0.16598074     0.92500
C1514       C  0.50524409  0.84366144  0.16600105     0.91700
C1515       C  0.50252264  0.74647441  0.21162944     0.83800
C1516       C  0.50806107  0.74474512  0.12026627     0.90100
O1517       O  0.78623302  0.92869382  0.16552273    -0.73700
O1518       O  0.78629863  0.57765899  0.16579508    -0.74600
O1519       O  0.78817365  0.00256629  0.20025922    -0.63300
O1520       O  0.78484262  0.00382464  0.13092111    -0.71700
O1521       O  0.70234701  0.00512562  0.13180859    -0.71200
O1522       O  0.70552544  0.00292851  0.20111757    -0.62500
O1523       O  0.70373952  0.57822239  0.16680764    -0.75000
O1524       O  0.70366067  0.92955822  0.16621019    -0.73800
Cu1525     Cu  0.78931082  0.00313644  0.16558189     1.04600
Cu1526     Cu  0.70094766  0.00394393  0.16649947     1.04300
C1527       C  0.74487672  0.90571598  0.16604146     0.92500
C1528       C  0.74496098  0.60135127  0.16631866     0.91700
C1529       C  0.74738332  0.00234958  0.21151992     0.83800
C1530       C  0.74306026  0.00521456  0.12042553     0.90100
O1531       O  0.78599978  0.67886939  0.16601275    -0.73700
O1532       O  0.78590567  0.82753041  0.16629163    -0.74600
O1533       O  0.78732812  0.75253228  0.20109929    -0.63300
O1534       O  0.78388632  0.75384585  0.13140676    -0.71700
O1535       O  0.70141217  0.75480597  0.13233838    -0.71200
O1536       O  0.70473368  0.75310537  0.20183992    -0.62500
O1537       O  0.70334757  0.82835888  0.16718249    -0.75000
O1538       O  0.70343593  0.67939422  0.16679004    -0.73800
Cu1539     Cu  0.78867341  0.75316600  0.16619251     1.04600
Cu1540     Cu  0.70035267  0.75391457  0.16708922     1.04300
C1541       C  0.74478662  0.65571909  0.16636761     0.92500
C1542       C  0.74468406  0.85135428  0.16652810     0.91700
C1543       C  0.74646010  0.75233783  0.21236835     0.83800
C1544       C  0.74204669  0.75497106  0.12090287     0.90100
O1545       O  0.57424036  0.95910126  0.28325513    -0.73700
O1546       O  0.92535389  0.95983525  0.28287521    -0.74600
O1547       O  0.00044257  0.95756427  0.24837407    -0.63300
O1548       O  0.99958012  0.96107532  0.31790003    -0.71700
O1549       O  0.00046828  0.54345704  0.31714803    -0.71200
O1550       O  0.99921187  0.53996805  0.24750763    -0.62500
O1551       O  0.92496006  0.54222639  0.28250403    -0.75000
O1552       O  0.57372947  0.54148021  0.28205049    -0.73800
Cu1553     Cu  0.99983070  0.95650437  0.28315335     1.04600
Cu1554     Cu  0.99948803  0.54467908  0.28228139     1.04300
C1555       C  0.59736385  0.00024484  0.28259048     0.92500
C1556       C  0.90172217  0.00112321  0.28256944     0.91700
C1557       C  0.00029256  0.99822597  0.23706234     0.83800
C1558       C  0.00057770  0.00270214  0.32843912     0.90100
O1559       O  0.00136152  0.70605663  0.24797714    -0.73700
O1560       O  0.99450049  0.70822325  0.31727280    -0.74600
O1561       O  0.92414404  0.70739316  0.28146931    -0.63300
O1562       O  0.57286499  0.70661399  0.28403245    -0.71700
O1563       O  0.57279866  0.78894483  0.28277875    -0.71200
O1564       O  0.92392558  0.78976535  0.28230108    -0.62500
O1565       O  0.49811050  0.79008111  0.31720794    -0.75000
O1566       O  0.49922151  0.78848054  0.24759788    -0.73800
Cu1567     Cu  0.99828702  0.70421935  0.28269277     1.04600
Cu1568     Cu  0.49848088  0.79223781  0.28241910     1.04300
C1569       C  0.00098378  0.74702184  0.23691147     0.92500
C1570       C  0.49550464  0.74920766  0.32830578     0.91700
C1571       C  0.90063667  0.74868226  0.28199059     0.83800
C1572       C  0.59626446  0.74763957  0.28362528     0.90100
O1573       O  0.82438290  0.95990759  0.28156501    -0.73700
O1574       O  0.67562473  0.95927342  0.28276005    -0.74600
O1575       O  0.74854782  0.96027974  0.24737538    -0.63300
O1576       O  0.75204916  0.95936203  0.31674162    -0.71700
O1577       O  0.74745211  0.54134304  0.31680055    -0.71200
O1578       O  0.74931985  0.54273007  0.24766730    -0.62500
O1579       O  0.67448258  0.54165716  0.28192816    -0.75000
O1580       O  0.82334300  0.54225647  0.28269513    -0.73800
Cu1581     Cu  0.75013242  0.95678504  0.28207904     1.04600
Cu1582     Cu  0.74865090  0.54486883  0.28226965     1.04300
C1583       C  0.84729809  0.00113857  0.28226006     0.92500
C1584       C  0.65166865  0.00035563  0.28242648     0.91700
C1585       C  0.74856645  0.00172103  0.23668661     0.83800
C1586       C  0.75024275  0.00035415  0.32778950     0.90100
O1587       O  0.74770672  0.70907887  0.24806752    -0.73700
O1588       O  0.75062492  0.70474693  0.31775806    -0.74600
O1589       O  0.67454208  0.70641331  0.28354157    -0.63300
O1590       O  0.82337782  0.70738541  0.28216061    -0.71700
O1591       O  0.82248232  0.78974554  0.28347922    -0.71200
O1592       O  0.67367709  0.78880031  0.28412395    -0.62500
O1593       O  0.74852106  0.78711124  0.31869630    -0.75000
O1594       O  0.74742358  0.79145972  0.24908344    -0.73800
Cu1595     Cu  0.74912243  0.70400012  0.28286080     1.04600
Cu1596     Cu  0.74802148  0.79215065  0.28391362     1.04300
C1597       C  0.74733009  0.75090670  0.23767860     0.92500
C1598       C  0.74959393  0.74535456  0.32915353     0.91700
C1599       C  0.65068072  0.74755985  0.28385352     0.83800
C1600       C  0.84631372  0.74864576  0.28250877     0.90100
O1601       O  0.00737114  0.54525279  0.43915966    -0.73700
O1602       O  0.00729758  0.54524706  0.50901394    -0.74600
O1603       O  0.58169605  0.54552413  0.47402526    -0.63300
O1604       O  0.93287455  0.54537063  0.47399937    -0.71700
O1605       O  0.93343287  0.96297621  0.47456781    -0.71200
O1606       O  0.58226939  0.96312536  0.47352122    -0.62500
O1607       O  0.00889981  0.96285588  0.50893162    -0.75000
O1608       O  0.00646751  0.96286845  0.43927976    -0.73800
Cu1609     Cu  0.00731386  0.54827092  0.47406170     1.04600
Cu1610     Cu  0.00785059  0.96010516  0.47408333     1.04300
C1611       C  0.00650304  0.00397121  0.42828901     0.92500
C1612       C  0.00806742  0.00396969  0.51991244     0.91700
C1613       C  0.60538378  0.00430369  0.47367516     0.83800
C1614       C  0.90973736  0.00420388  0.47426807     0.90100
O1615       O  0.49040908  0.70813843  0.44015364    -0.73700
O1616       O  0.49463878  0.70620254  0.50944518    -0.74600
O1617       O  0.91876611  0.70734203  0.47554611    -0.63300
O1618       O  0.56754851  0.70691773  0.47398602    -0.71700
O1619       O  0.56732558  0.78924406  0.47517547    -0.71200
O1620       O  0.91848059  0.78971851  0.47472357    -0.62500
O1621       O  0.49244860  0.78852552  0.50978337    -0.75000
O1622       O  0.49369121  0.79004745  0.44015805    -0.73800
Cu1623     Cu  0.49290906  0.70431399  0.47475974     1.04600
Cu1624     Cu  0.49294173  0.79230832  0.47498428     1.04300
C1625       C  0.49180645  0.74908275  0.42908246     0.92500
C1626       C  0.49371251  0.74712421  0.52056260     0.91700
C1627       C  0.89524557  0.74862002  0.47511826     0.83800
C1628       C  0.59088950  0.74797665  0.47453664     0.90100
O1629       O  0.75970326  0.54570392  0.50839492    -0.73700
O1630       O  0.75497099  0.54392152  0.43887465    -0.74600
O1631       O  0.68291840  0.54536944  0.47444124    -0.63300
O1632       O  0.83168746  0.54534984  0.47281993    -0.71700
O1633       O  0.83215511  0.96317247  0.47532394    -0.71200
O1634       O  0.68340000  0.96309312  0.47271522    -0.62500
O1635       O  0.76089708  0.96202579  0.43949372    -0.75000
O1636       O  0.75392527  0.96427902  0.50851671    -0.73800
Cu1637     Cu  0.75733010  0.54803710  0.47360295     1.04600
Cu1638     Cu  0.75770144  0.96032317  0.47402856     1.04300
C1639       C  0.75639482  0.00504496  0.51961935     0.92500
C1640       C  0.75763653  0.00250999  0.42815292     0.91700
C1641       C  0.65973682  0.00428128  0.47356800     0.83800
C1642       C  0.85535407  0.00422386  0.47415361     0.90100
O1643       O  0.66842561  0.78911233  0.47442589    -0.73700
O1644       O  0.81721589  0.78975667  0.47413204    -0.74600
O1645       O  0.74265873  0.78741264  0.43942448    -0.63300
O1646       O  0.74370554  0.79116585  0.50904621    -0.71700
O1647       O  0.74289678  0.70897229  0.50986841    -0.71200
O1648       O  0.74505430  0.70504217  0.44035088    -0.62500
O1649       O  0.81797782  0.70740479  0.47559986    -0.75000
O1650       O  0.66914788  0.70673344  0.47467477    -0.73800
Cu1651     Cu  0.74287706  0.79225866  0.47421178     1.04600
Cu1652     Cu  0.74372343  0.70416832  0.47515698     1.04300
C1653       C  0.64533987  0.74790883  0.47452564     0.92500
C1654       C  0.84096714  0.74861778  0.47497425     0.91700
C1655       C  0.74437615  0.74565835  0.42897723     0.83800
C1656       C  0.74381702  0.75055442  0.52045703     0.90100
O1657       O  0.96015642  0.49019176  0.94050210    -0.73700
O1658       O  0.96448782  0.48985760  0.01000642    -0.74600
O1659       O  0.96218654  0.56439398  0.97529818    -0.63300
O1660       O  0.96242502  0.91558523  0.97518352    -0.71700
O1661       O  0.54488324  0.91502584  0.97381203    -0.71200
O1662       O  0.54469204  0.56383513  0.97448456    -0.62500
O1663       O  0.54691843  0.48869823  0.00893514    -0.75000
O1664       O  0.54250582  0.49063687  0.93940548    -0.73800
Cu1665     Cu  0.95944147  0.48999245  0.97529497     1.04600
Cu1666     Cu  0.54763576  0.48947885  0.97412920     1.04300
C1667       C  0.50061229  0.49088043  0.92895799     0.92500
C1668       C  0.50633242  0.48928791  0.02042848     0.91700
C1669       C  0.50338147  0.58750999  0.97484812     0.83800
C1670       C  0.50364711  0.89187377  0.97444477     0.90100
O1671       O  0.95940163  0.74001453  0.94040395    -0.73700
O1672       O  0.96512929  0.74029044  0.00985518    -0.74600
O1673       O  0.96240339  0.81447792  0.97507817    -0.63300
O1674       O  0.96217508  0.66566081  0.97526715    -0.71700
O1675       O  0.54464769  0.66487691  0.97390528    -0.71200
O1676       O  0.54486295  0.81368065  0.97367994    -0.62500
O1677       O  0.54752548  0.73927419  0.00851198    -0.75000
O1678       O  0.54182067  0.73901713  0.93898661    -0.73800
Cu1679     Cu  0.95940275  0.74011902  0.97519661     1.04600
Cu1680     Cu  0.54760179  0.73918689  0.97370954     1.04300
C1681       C  0.49969481  0.73955680  0.92874641     0.92500
C1682       C  0.50712482  0.73980515  0.02014583     0.91700
C1683       C  0.50363654  0.83748984  0.97438148     0.83800
C1684       C  0.50336654  0.64185458  0.97468002     0.90100
O1685       O  0.78704084  0.93521949  0.97584265    -0.73700
O1686       O  0.78701833  0.58396301  0.97596783    -0.74600
O1687       O  0.78277041  0.50975773  0.01049973    -0.63300
O1688       O  0.79115934  0.00977534  0.94120901    -0.71700
O1689       O  0.70878324  0.00979435  0.93915643    -0.71200
O1690       O  0.70037494  0.01112052  0.00861654    -0.62500
O1691       O  0.70457156  0.58469501  0.97374230    -0.75000
O1692       O  0.70456193  0.93581665  0.97407376    -0.73800
Cu1693     Cu  0.78984398  0.50963367  0.97595533     1.04600
Cu1694     Cu  0.70166325  0.01035241  0.97381320     1.04300
C1695       C  0.74583148  0.91208040  0.97493593     0.92500
C1696       C  0.74581455  0.60771735  0.97494199     0.91700
C1697       C  0.74042290  0.01081577  0.02050910     0.83800
C1698       C  0.75125138  0.00971649  0.92922562     0.90100
O1699       O  0.70926000  0.75953300  0.93926745    -0.73700
O1700       O  0.70071458  0.76047637  0.00888566    -0.74600
O1701       O  0.70472441  0.83452511  0.97393407    -0.63300
O1702       O  0.70469813  0.68579509  0.97415284    -0.71700
O1703       O  0.78716339  0.68503210  0.97623353    -0.71200
O1704       O  0.78719227  0.83392117  0.97581723    -0.62500
O1705       O  0.78312525  0.75992898  0.01071175    -0.75000
O1706       O  0.79167150  0.75855043  0.94131877    -0.73800
Cu1707     Cu  0.70195480  0.76013028  0.97398242     1.04600
Cu1708     Cu  0.79014509  0.75937138  0.97610670     1.04300
C1709       C  0.75175911  0.75855125  0.92934287     0.92500
C1710       C  0.74081693  0.76031462  0.02076610     0.91700
C1711       C  0.74592712  0.85766034  0.97488704     0.83800
C1712       C  0.74589700  0.66202524  0.97513288     0.90100
O1713       O  0.53815336  0.92221784  0.78326404    -0.73700
O1714       O  0.53791733  0.57105174  0.78264765    -0.74600
O1715       O  0.53741666  0.49725152  0.81764892    -0.63300
O1716       O  0.53897691  0.49646930  0.74810733    -0.71700
O1717       O  0.95641768  0.49764449  0.74767807    -0.71200
O1718       O  0.95505324  0.49688355  0.81757089    -0.62500
O1719       O  0.95538184  0.57165553  0.78266247    -0.75000
O1720       O  0.95564079  0.92285690  0.78273024    -0.73800
Cu1721     Cu  0.54095356  0.49671344  0.78292416     1.04600
Cu1722     Cu  0.95269822  0.49728335  0.78263691     1.04300
C1723       C  0.99693737  0.89915754  0.78321403     0.92500
C1724       C  0.99663181  0.59479946  0.78255979     0.91700
C1725       C  0.49618058  0.49660637  0.82861423     0.83800
C1726       C  0.99801649  0.49753374  0.73697300     0.90100
O1727       O  0.95533259  0.67288982  0.78239158    -0.73700
O1728       O  0.95560739  0.82169425  0.78340697    -0.74600
O1729       O  0.95593815  0.74867617  0.74809100    -0.63300
O1730       O  0.95510419  0.74568983  0.81769663    -0.71700
O1731       O  0.53757520  0.74444880  0.81788993    -0.71200
O1732       O  0.53853084  0.74802016  0.74833014    -0.62500
O1733       O  0.53813164  0.82084868  0.78374417    -0.75000
O1734       O  0.53787494  0.67206260  0.78248712    -0.73800
Cu1735     Cu  0.95259547  0.74729910  0.78289241     1.04600
Cu1736     Cu  0.54090750  0.74635636  0.78312549     1.04300
C1737       C  0.49656152  0.64903110  0.78242255     0.92500
C1738       C  0.49687162  0.84465153  0.78352768     0.91700
C1739       C  0.49738080  0.74883007  0.73731439     0.83800
C1740       C  0.49618143  0.74409041  0.82873383     0.90100
O1741       O  0.71247869  0.50199204  0.74892257    -0.73700
O1742       O  0.71523634  0.50367933  0.81842533    -0.74600
O1743       O  0.71373371  0.57702975  0.78346568    -0.63300
O1744       O  0.71388233  0.92830534  0.78398794    -0.71700
O1745       O  0.79645047  0.92762350  0.78356957    -0.71200
O1746       O  0.79630338  0.57650888  0.78263358    -0.62500
O1747       O  0.79770930  0.50376308  0.81788565    -0.75000
O1748       O  0.79508550  0.50087297  0.74826781    -0.73800
Cu1749     Cu  0.71097821  0.50272040  0.78372176     1.04600
Cu1750     Cu  0.79930781  0.50211190  0.78305947     1.04300
C1751       C  0.75336652  0.50114239  0.73770654     0.92500
C1752       C  0.75679162  0.50466846  0.82912743     0.91700
C1753       C  0.75497128  0.60016257  0.78312286     0.83800
C1754       C  0.75514337  0.90453264  0.78375583     0.90100
O1755       O  0.71542209  0.75297104  0.81862504    -0.73700
O1756       O  0.71105919  0.75215376  0.74916533    -0.74600
O1757       O  0.71355275  0.67817473  0.78396311    -0.63300
O1758       O  0.71367376  0.82709039  0.78388463    -0.71700
O1759       O  0.79622499  0.82628546  0.78301549    -0.71200
O1760       O  0.79611485  0.67757531  0.78298506    -0.62500
O1761       O  0.79362668  0.75147326  0.74805565    -0.75000
O1762       O  0.79793389  0.75206750  0.81792247    -0.73800
Cu1763     Cu  0.71058386  0.75261331  0.78395184     1.04600
Cu1764     Cu  0.79890184  0.75182400  0.78294967     1.04300
C1765       C  0.75707654  0.75301806  0.82924392     0.92500
C1766       C  0.75160669  0.75136072  0.73770570     0.91700
C1767       C  0.75486424  0.65448415  0.78336348     0.83800
C1768       C  0.75501329  0.85012017  0.78356738     0.90100
O1769       O  0.99991814  0.95816060  0.70028123    -0.73700
O1770       O  0.00322312  0.96124278  0.63059501    -0.74600
O1771       O  0.57604596  0.96062921  0.66617441    -0.63300
O1772       O  0.92701126  0.95968153  0.66487586    -0.71700
O1773       O  0.92641204  0.54206370  0.66571924    -0.71200
O1774       O  0.57499482  0.54301528  0.66675089    -0.62500
O1775       O  0.00206922  0.54361482  0.63118266    -0.75000
O1776       O  0.99922027  0.54053002  0.70110317    -0.73800
Cu1777     Cu  0.00158790  0.95704642  0.66543095     1.04600
Cu1778     Cu  0.00062157  0.54519301  0.66619520     1.04300
C1779       C  0.99893548  0.49880201  0.71161048     0.92500
C1780       C  0.00332513  0.50276194  0.61994433     0.91700
C1781       C  0.59893370  0.50196098  0.66666037     0.83800
C1782       C  0.90330944  0.50092346  0.66541876     0.90100
O1783       O  0.57292077  0.70825714  0.66649638    -0.73700
O1784       O  0.92383213  0.70806938  0.66635315    -0.74600
O1785       O  0.99825704  0.70726594  0.63171301    -0.63300
O1786       O  0.49816960  0.70804383  0.70112923    -0.71700
O1787       O  0.49761128  0.79046192  0.70112473    -0.71200
O1788       O  0.49717731  0.78958298  0.63137357    -0.62500
O1789       O  0.92337374  0.79048138  0.66627689    -0.75000
O1790       O  0.57193514  0.79064555  0.66620472    -0.73800
Cu1791     Cu  0.49836002  0.70499931  0.66641946     1.04600
Cu1792     Cu  0.49753976  0.79316635  0.66622789     1.04300
C1793       C  0.59586053  0.74957484  0.66644241     0.92500
C1794       C  0.90022067  0.74938082  0.66629470     0.91700
C1795       C  0.49735772  0.74817848  0.62058124     0.83800
C1796       C  0.49775523  0.74921085  0.71201765     0.90100
O1797       O  0.82546558  0.96031462  0.66539336    -0.73700
O1798       O  0.67690097  0.96098799  0.66747361    -0.74600
O1799       O  0.74825463  0.96239765  0.63183767    -0.63300
O1800       O  0.75334767  0.96012932  0.70138919    -0.71700
O1801       O  0.75066083  0.54251565  0.70165669    -0.71200
O1802       O  0.75306588  0.54391238  0.63227196    -0.62500
O1803       O  0.67660099  0.54332815  0.66651380    -0.75000
O1804       O  0.82565054  0.54260005  0.66712942    -0.73800
Cu1805     Cu  0.75100483  0.95808128  0.66653116     1.04600
Cu1806     Cu  0.75136400  0.54598096  0.66693705     1.04300
C1807       C  0.84896315  0.50123435  0.66595055     0.92500
C1808       C  0.65332099  0.50219668  0.66694718     0.91700
C1809       C  0.75102414  0.50343921  0.62089454     0.83800
C1810       C  0.75239409  0.50119670  0.71241439     0.90100
O1811       O  0.74801158  0.79172030  0.63193916    -0.73700
O1812       O  0.74847749  0.79177391  0.70138218    -0.74600
O1813       O  0.82239694  0.79107227  0.66652624    -0.63300
O1814       O  0.67330915  0.79121336  0.66662448    -0.71700
O1815       O  0.67413047  0.70883126  0.66690692    -0.71200
O1816       O  0.82267248  0.70866794  0.66621228    -0.62500
O1817       O  0.74965136  0.70937699  0.70156177    -0.75000
O1818       O  0.74750815  0.70950275  0.63170617    -0.73800
Cu1819     Cu  0.74796194  0.79430957  0.66662960     1.04600
Cu1820     Cu  0.74846493  0.70619089  0.66660756     1.04300
C1821       C  0.74763218  0.75081689  0.62081563     0.92500
C1822       C  0.74981228  0.75074647  0.71237777     0.91700
C1823       C  0.84591575  0.74971830  0.66632044     0.83800
C1824       C  0.65028338  0.74993629  0.66667318     0.90100
C1825       C  0.78188648  0.71779732  0.86786123    -0.02600
C1826       C  0.75754550  0.75504418  0.85485632     0.07100
C1827       C  0.73242918  0.79396312  0.86641238    -0.02700
C1828       C  0.73107236  0.79528785  0.89074466    -0.02700
C1829       C  0.75466054  0.75765947  0.90376225     0.07300
C1830       C  0.78047918  0.71909030  0.89224569    -0.02900
Br1831     Br  0.81176132  0.66645630  0.90978778    -0.01400
Br1832     Br  0.81474233  0.66337067  0.85230677    -0.01500
Br1833     Br  0.69872195  0.85011506  0.90626221    -0.01400
Br1834     Br  0.70136424  0.84683488  0.84894857    -0.01400
C1835       C  0.78372782  0.97371388  0.89210107    -0.02600
C1836       C  0.75418102  0.50948404  0.90364286     0.07100
C1837       C  0.72717303  0.54488217  0.89064034    -0.02700
C1838       C  0.72853528  0.54364426  0.86629859    -0.02700
C1839       C  0.75724650  0.50721009  0.85473465     0.07300
C1840       C  0.78559235  0.97286204  0.86775042    -0.02900
Br1841     Br  0.82527614  0.92283214  0.85235005    -0.01400
Br1842     Br  0.81937585  0.92362415  0.90950497    -0.01500
Br1843     Br  0.69284582  0.59375144  0.84890030    -0.01400
Br1844     Br  0.69004560  0.59680966  0.90610834    -0.01400
C1845       C  0.52109573  0.70181202  0.89038695    -0.02600
C1846       C  0.49768860  0.73995580  0.90317751     0.07100
C1847       C  0.97286173  0.77883827  0.89147350    -0.02700
C1848       C  0.97200947  0.77991241  0.86712434    -0.02700
C1849       C  0.49596500  0.74212209  0.85430978     0.07300
C1850       C  0.52019193  0.70284488  0.86602605    -0.02900
Br1851     Br  0.55022855  0.64908375  0.84876887    -0.01400
Br1852     Br  0.55261234  0.64688684  0.90623868    -0.01500
Br1853     Br  0.94005216  0.83460390  0.85132376    -0.01400
Br1854     Br  0.94211897  0.83221421  0.90871109    -0.01400
C1855       C  0.46827849  0.52690690  0.89172690    -0.02600
C1856       C  0.49901056  0.49214378  0.90330629     0.07100
C1857       C  0.02837178  0.95871965  0.89027290    -0.02700
C1858       C  0.02711864  0.96006701  0.86592391    -0.02700
C1859       C  0.49649809  0.49486704  0.85430090     0.07300
C1860       C  0.46688468  0.52812220  0.86734934    -0.02900
Br1861     Br  0.42614133  0.57733413  0.85199433    -0.01400
Br1862     Br  0.43017212  0.57519385  0.90914406    -0.01500
Br1863     Br  0.06545512  0.91181970  0.84860412    -0.01400
Br1864     Br  0.06859356  0.90899292  0.90563682    -0.01400
C1865       C  0.78109263  0.72156134  0.58255235    -0.02600
C1866       C  0.74726899  0.75146522  0.59513538     0.07100
C1867       C  0.71335953  0.78234670  0.58306239    -0.02700
C1868       C  0.71243916  0.78233742  0.55868975    -0.02700
C1869       C  0.74544499  0.75151563  0.54611863     0.07300
C1870       C  0.78013970  0.72151225  0.55818275    -0.02900
Br1871     Br  0.82856895  0.68205833  0.54145400    -0.01400
Br1872     Br  0.83111756  0.68273116  0.59855012    -0.01500
Br1873     Br  0.66385355  0.82294968  0.54269894    -0.01400
Br1874     Br  0.66617828  0.82333554  0.59973569    -0.01400
C1875       C  0.73520993  0.04606542  0.58237919    -0.02600
C1876       C  0.75238859  0.50404565  0.59497004     0.07100
C1877       C  0.77126082  0.46259448  0.58253333    -0.02700
C1878       C  0.77206813  0.46272594  0.55814803    -0.02700
C1879       C  0.75526357  0.00489269  0.54554581     0.07300
C1880       C  0.73678717  0.04653624  0.55797895    -0.02900
Br1881     Br  0.70973786  0.10413038  0.54210683     0.05000
Br1882     Br  0.70649898  0.10328784  0.59791340    -0.01500
Br1883     Br  0.79836362  0.40423076  0.54268294    -0.01400
Br1884     Br  0.79967774  0.40551542  0.59835320    -0.01400
C1885       C  0.53381226  0.72240057  0.58249996    -0.02600
C1886       C  0.49620951  0.74750103  0.59499705     0.07100
C1887       C  0.95710699  0.77138103  0.58298822    -0.02700
C1888       C  0.95599666  0.77074304  0.55863818    -0.02700
C1889       C  0.49417574  0.74657348  0.54613387     0.07300
C1890       C  0.53285393  0.72200802  0.55814489    -0.02900
Br1891     Br  0.58596090  0.68963865  0.54128052    -0.01400
Br1892     Br  0.58811754  0.69043478  0.59866528    -0.01500
Br1893     Br  0.90059421  0.80069776  0.54243573    -0.01400
Br1894     Br  0.90361816  0.80302040  0.59985094    -0.01400
C1895       C  0.96125438  0.50409626  0.55725457    -0.02600
C1896       C  0.00711525  0.00367473  0.54548515     0.07100
C1897       C  0.55181828  0.00207729  0.55818039    -0.02700
C1898       C  0.55062363  0.00206904  0.58257789    -0.02700
C1899       C  0.00472757  0.50336588  0.59435668     0.07300
C1900       C  0.96007359  0.50392657  0.58162672    -0.02900
Br1901     Br  0.89735688  0.50367228  0.59770116    -0.01400
Br1902     Br  0.90010474  0.50382911  0.53986164    -0.01500
Br1903     Br  0.61168560  0.99949121  0.59998086    -0.01400
Br1904     Br  0.61446118  0.99874656  0.54204775    -0.01400
C1905       C  0.79157856  0.73244391  0.36742736    -0.02600
C1906       C  0.74835987  0.74418102  0.35468733     0.07100
C1907       C  0.70373023  0.75550429  0.36639620    -0.02700
C1908       C  0.70237824  0.75557381  0.39073307    -0.02700
C1909       C  0.74564861  0.74439467  0.40347020     0.07300
C1910       C  0.79021733  0.73257404  0.39180277    -0.02900
Br1911     Br  0.84970717  0.71832069  0.40930783    -0.01400
Br1912     Br  0.85294631  0.71797160  0.35146757    -0.01500
Br1913     Br  0.64098759  0.76979674  0.40672956    -0.01400
Br1914     Br  0.64412206  0.76985369  0.34901819    -0.01400
C1915       C  0.77994622  0.53714408  0.36519344    -0.02600
C1916       C  0.75214048  0.00058692  0.35345556     0.07100
C1917       C  0.72681590  0.96410651  0.36638747    -0.02700
C1918       C  0.72917917  0.96426935  0.39072073    -0.02700
C1919       C  0.75641531  0.00131009  0.40246513     0.07300
C1920       C  0.78212490  0.53741715  0.38950511    -0.02900
Br1921     Br  0.82368121  0.58568162  0.40471256    -0.01400
Br1922     Br  0.81808387  0.58572562  0.34824130    -0.01500
Br1923     Br  0.69269719  0.91432990  0.40762360    -0.01400
Br1924     Br  0.68602134  0.91505582  0.35115914    -0.01400
C1925       C  0.51857735  0.71123015  0.36670932    -0.02600
C1926       C  0.49387937  0.74909439  0.35409148     0.07100
C1927       C  0.96723705  0.78631773  0.36631733    -0.02700
C1928       C  0.96575870  0.78583645  0.39071234    -0.02700
C1929       C  0.49177505  0.74880605  0.40329263     0.07300
C1930       C  0.51780341  0.71126071  0.39105743    -0.02900
Br1931     Br  0.55506638  0.66028709  0.40727071    -0.01400
Br1932     Br  0.55608513  0.65967761  0.35106468    -0.01500
Br1933     Br  0.92444243  0.83415086  0.40653039    -0.01400
Br1934     Br  0.92959417  0.83674153  0.34994566    -0.01400
C1935       C  0.54630903  0.01602638  0.36557033    -0.02600
C1936       C  0.00205140  0.00355127  0.35395628     0.07100
C1937       C  0.95956786  0.49050932  0.36675058    -0.02700
C1938       C  0.96113338  0.49038644  0.39109673    -0.02700
C1939       C  0.00511479  0.00367778  0.40274616     0.07300
C1940       C  0.54783142  0.01606543  0.38993410    -0.02900
Br1941     Br  0.60910633  0.03047482  0.40582973    -0.01400
Br1942     Br  0.60542407  0.03087748  0.34806535    -0.01500
Br1943     Br  0.90287512  0.47243228  0.40853133    -0.01400
Br1944     Br  0.89897838  0.47378014  0.35080771    -0.01400
C1945       C  0.76708995  0.79401978  0.08334492    -0.02600
C1946       C  0.74057708  0.75700031  0.09529810     0.07100
C1947       C  0.71222710  0.72237970  0.08270156    -0.02700
C1948       C  0.71156678  0.72386558  0.05833287    -0.02700
C1949       C  0.73871599  0.76042431  0.04638204     0.07300
C1950       C  0.76564786  0.79607027  0.05901444    -0.02900
Br1951     Br  0.79843329  0.84963913  0.04306703    -0.01400
Br1952     Br  0.80400876  0.84342426  0.10023474    -0.01500
Br1953     Br  0.67567714  0.67384432  0.04140979    -0.01400
Br1954     Br  0.67647924  0.67090582  0.09871199    -0.01400
C1955       C  0.76688802  0.54600912  0.05858834    -0.02600
C1956       C  0.73827080  0.01145962  0.04608314     0.07100
C1957       C  0.70973597  0.97614138  0.05813517    -0.02700
C1958       C  0.71215941  0.97352085  0.08242058    -0.02700
C1959       C  0.74165142  0.00730466  0.09488528     0.07300
C1960       C  0.76877325  0.54381592  0.08289490    -0.02900
Br1961     Br  0.80737869  0.59212902  0.09966577    -0.01400
Br1962     Br  0.80095145  0.59868663  0.04255148    -0.01500
Br1963     Br  0.67812248  0.92092596  0.09845340    -0.01400
Br1964     Br  0.66832114  0.93006612  0.04154769    -0.01400
C1965       C  0.98113943  0.70662209  0.08283317    -0.02600
C1966       C  0.50920493  0.74268621  0.09466497     0.07100
C1967       C  0.53789449  0.77678565  0.08193768    -0.02700
C1968       C  0.53752319  0.77564203  0.05757465    -0.02700
C1969       C  0.50886592  0.74005576  0.04574901     0.07300
C1970       C  0.98110532  0.70522722  0.05849160    -0.02900
Br1971     Br  0.94470186  0.65381194  0.04270100    -0.01400
Br1972     Br  0.94437287  0.65733670  0.09988436    -0.01500
Br1973     Br  0.57397331  0.82502650  0.04048606    -0.01400
Br1974     Br  0.57573241  0.82701411  0.09773731    -0.01400
C1975       C  0.53497258  0.52653418  0.05781379    -0.02600
C1976       C  0.50777440  0.48975917  0.04602397     0.07100
C1977       C  0.98139456  0.95393214  0.05879112    -0.02700
C1978       C  0.98202482  0.95498840  0.08313674    -0.02700
C1979       C  0.50839217  0.49235361  0.09490254     0.07300
C1980       C  0.53501843  0.52799623  0.08216512    -0.02900
Br1981     Br  0.56908622  0.58082766  0.09799124    -0.01400
Br1982     Br  0.56994423  0.57689586  0.04068218    -0.01500
Br1983     Br  0.94853621  0.90362183  0.10032240    -0.01400
Br1984     Br  0.94577590  0.90197424  0.04302277    -0.01400
loop_ 
_geom_bond_atom_site_label_1 
_geom_bond_atom_site_label_2 
_geom_bond_distance 
_geom_bond_site_symmetry_2 
_ccdc_geom_bond_type 
O1           Cu9   2.008       .  S
O1         C1003   1.278       .  A
O2         Cu505   2.011       .  S
O2           C12   1.276       .  A
O3           Cu9   2.009   1_545  S
O3         C1005   1.278       .  A
O4         Cu505   2.010       .  S
O4         C1006   1.278       .  A
O5          Cu10   2.006       .  S
O5           C14   1.277       .  A
O6         Cu506   2.007   1_545  S
O6           C13   1.277       .  A
O7          Cu10   2.016       .  S
O7         C1004   1.278       .  A
O8         Cu506   2.015       .  S
O8           C11   1.279       .  A
Cu9         O498   2.011       .  S
Cu9         O500   2.010       .  S
Cu9       Cu1498   2.377       .  S
Cu10        O502   2.007       .  S
Cu10        O504   2.015       .  S
Cu10      Cu1497   2.377   1_455  S
C11         O993   1.278   1_455  A
C11         C491   1.480       .  S
C12         O999   1.278       .  A
C12          C69   1.462       .  S
C13         O995   1.278   1_455  A
C13          C25   1.466       .  S
C14         O996   1.278   1_455  A
C14          C26   1.466       .  S
O15         Cu23   2.008       .  S
O15          C25   1.278       .  A
O16         Cu23   2.010       .  S
O16          C26   1.278       .  A
O17         Cu23   2.014       .  S
O17          C27   1.277       .  A
O18         Cu23   2.014       .  S
O18          C28   1.278       .  A
O19         Cu24   2.010       .  S
O19        C1020   1.278       .  A
O20         Cu24   2.012       .  S
O20        C1019   1.277       .  A
O21         Cu24   2.006       .  S
O21        C1018   1.277       .  A
O22         Cu24   2.008       .  S
O22        C1017   1.277       .  A
Cu23      Cu1016   2.376   1_455  S
Cu24      Cu1015   2.376       .  S
C25        O1014   1.277   1_455  A
C26        O1013   1.277   1_455  A
C27        O1012   1.277   1_455  A
C27        C1073   1.462       .  S
C28        O1011   1.278   1_455  A
C28         C478   1.482       .  S
O29         Cu37   2.010       .  S
O29          C39   1.278       .  A
O30        Cu533   2.011       .  S
O30          C40   1.278       .  A
O31         Cu37   2.006       .  S
O31          C41   1.276       .  A
O32         Cu37   2.008       .  S
O32          C42   1.278       .  A
O33         Cu38   2.007       .  S
O33          C42   1.278       .  A
O34         Cu38   2.006       .  S
O34          C41   1.276       .  A
O35        Cu534   2.005       .  S
O35          C40   1.277       .  A
O36         Cu38   2.007       .  S
O36          C39   1.277       .  A
Cu37        O526   2.011       .  S
Cu37        Cu38   2.377       .  S
Cu38        O531   2.005       .  S
C39          C54   1.466       .  S
C40          C53   1.466       .  S
C41          C97   1.456       .  S
C42         C471   1.479       .  S
O43         Cu51   2.005       .  S
O43          C53   1.277       .  A
O44         Cu51   2.006       .  S
O44          C54   1.277       .  A
O45         Cu51   2.019       .  S
O45          C55   1.278       .  A
O46         Cu51   2.016       .  S
O46          C56   1.279       .  A
O47         Cu52   2.010       .  S
O47          C56   1.278       .  A
O48         Cu52   2.013       .  S
O48          C55   1.277       .  A
O49         Cu52   2.010       .  S
O49          C54   1.278       .  A
O50         Cu52   2.011       .  S
O50          C53   1.278       .  A
Cu51        Cu52   2.376       .  S
C55         C109   1.464       .  S
C56         C458   1.482       .  S
O57       Cu1057   2.003   1_455  S
O57          C67   1.277       .  A
O58         Cu65   2.005       .  S
O58          C68   1.278       .  A
O59         Cu65   2.012       .  S
O59          C69   1.277       .  A
O60         Cu65   2.013       .  S
O60          C70   1.278       .  A
O61         Cu66   2.017       .  S
O61         C566   1.278       .  A
O62         Cu66   2.015       .  S
O62         C565   1.278   1_545  A
O63         Cu66   2.006       .  S
O63         C564   1.277       .  A
O64       Cu1058   1.998   1_455  S
O64         C563   1.277       .  A
Cu65       O1049   2.003       .  S
Cu65       Cu562   2.378       .  S
Cu66       O1056   1.998       .  S
Cu66       Cu561   2.378   1_545  S
C67         O560   1.277       .  A
C67          C96   1.461       .  S
C68         O559   1.277       .  A
C68          C95   1.464       .  S
C69         O558   1.278       .  A
C70         O557   1.278       .  A
C70         C448   1.476       .  S
O71         Cu79   2.010       .  S
O71          C81   1.277       .  A
O72         Cu79   2.005       .  S
O72        C1074   1.277       .  A
O73         Cu79   1.997       .  S
O73          C83   1.276       .  A
O74       Cu1071   2.009   1_455  S
O74          C84   1.277       .  A
O75         Cu80   2.000   1_455  S
O75          C84   1.277       .  A
O76       Cu1072   2.007       .  S
O76          C83   1.277       .  A
O77         Cu80   2.013       .  S
O77          C82   1.278       .  A
O78         Cu80   2.017       .  S
O78        C1073   1.278   1_655  A
Cu79       O1066   2.009       .  S
Cu79      Cu1072   2.374       .  S
Cu80       O1068   2.007       .  S
Cu80      Cu1071   2.374       .  S
C81        O1070   1.278       .  A
C81        C1019   1.462       .  S
C82        O1064   1.277       .  A
C82         C438   1.492       .  S
C83         C112   1.462       .  S
C84         C111   1.464       .  S
O85         Cu93   2.000       .  S
O85          C95   1.276       .  A
O86         Cu93   2.005       .  S
O86          C96   1.277       .  A
O87         Cu93   2.010       .  S
O87          C97   1.277       .  A
O88         Cu93   2.007       .  S
O88          C98   1.277       .  A
O89         Cu94   2.000       .  S
O89         C594   1.277       .  A
O90         Cu94   2.002       .  S
O90         C593   1.276       .  A
O91         Cu94   1.998       .  S
O91         C592   1.276       .  A
O92         Cu94   2.010       .  S
O92         C591   1.278       .  A
Cu93       Cu590   2.375       .  S
Cu94       Cu589   2.375   1_545  S
C95         O588   1.278       .  A
C96         O587   1.276       .  A
C97         O586   1.276       .  A
C98         O585   1.277       .  A
C98         C428   1.485       .  S
O99        Cu107   2.017       .  S
O99         C109   1.278       .  A
O100       Cu107   2.019       .  S
O100        C110   1.278       .  A
O101       Cu107   2.007       .  S
O101        C111   1.278       .  A
O102       Cu107   2.001       .  S
O102        C112   1.277       .  A
O103       Cu108   2.004       .  S
O103        C112   1.277       .  A
O104       Cu108   2.003       .  S
O104        C111   1.277       .  A
O105       Cu108   2.016       .  S
O105        C110   1.278       .  A
O106       Cu108   2.015       .  S
O106        C109   1.277       .  A
Cu107      Cu108   2.378       .  S
C110        C418   1.477       .  S
O113       Cu121   2.020       .  S
O113        C619   1.279       .  A
O114       Cu121   2.023       .  S
O114        C620   1.279       .  A
O115      Cu1113   2.002       .  S
O115        C621   1.277       .  A
O116       Cu121   2.005       .  S
O116        C622   1.277       .  A
O117       Cu122   2.003       .  S
O117        C126   1.277       .  A
O118      Cu1114   2.004       .  S
O118        C125   1.277       .  A
O119       Cu122   2.017       .  S
O119        C124   1.278       .  A
O120       Cu122   2.015       .  S
O120        C123   1.278       .  A
Cu121      O1107   2.002       .  S
Cu121      Cu618   2.377   1_545  S
Cu122      O1110   2.004       .  S
Cu122      Cu617   2.377       .  S
C123        O609   1.279       .  A
C123        C451   1.478       .  S
C124        O610   1.279       .  A
C124        C408   1.479       .  S
C125        O611   1.277       .  A
C125        C153   1.462       .  S
C126        O612   1.277       .  A
C126        C154   1.463       .  S
O127       Cu135   2.005       .  S
O127        C137   1.277       .  A
O128       Cu135   2.007       .  S
O128        C138   1.277       .  A
O129      Cu1127   1.996       .  S
O129        C139   1.276       .  A
O130       Cu135   2.010   1_455  S
O130        C140   1.278       .  A
O131       Cu136   2.002   1_455  S
O131        C140   1.277       .  A
O132      Cu1128   2.005       .  S
O132        C139   1.277       .  A
O133       Cu136   2.015       .  S
O133        C138   1.279       .  A
O134       Cu136   2.015       .  S
O134        C137   1.278       .  A
Cu135      O1121   1.996       .  S
Cu135      Cu136   2.373       .  S
Cu136      O1124   2.005       .  S
C137        C441   1.492       .  S
C138        C401   1.479       .  S
C139        C166   1.460       .  S
C140        C165   1.465       .  S
O141       Cu149   2.014       .  S
O141        C647   1.278       .  A
O142       Cu149   2.013       .  S
O142        C648   1.279       .  A
O143       Cu149   2.004       .  S
O143        C649   1.277       .  A
O144       Cu149   2.001       .  S
O144        C650   1.277       .  A
O145       Cu150   2.006       .  S
O145        C154   1.277       .  A
O146       Cu150   2.001       .  S
O146        C153   1.277       .  A
O147       Cu150   2.000       .  S
O147        C152   1.276       .  A
O148       Cu150   2.000       .  S
O148        C151   1.275       .  A
Cu149      Cu646   2.365   1_545  S
Cu150      Cu645   2.365       .  S
C151        O637   1.278       .  A
C151        C391   1.500       .  S
C152        O638   1.279       .  A
C152        C431   1.486       .  S
C153        O639   1.277       .  A
C154        O640   1.277       .  A
O155       Cu163   2.005       .  S
O155        C165   1.277       .  A
O156       Cu163   2.000       .  S
O156        C166   1.277       .  A
O157       Cu163   2.016       .  S
O157        C167   1.278       .  A
O158       Cu163   2.015       .  S
O158        C168   1.279       .  A
O159       Cu164   2.012       .  S
O159        C168   1.278       .  A
O160       Cu164   2.013       .  S
O160        C167   1.278       .  A
O161       Cu164   2.000       .  S
O161        C166   1.277       .  A
O162       Cu164   2.007       .  S
O162        C165   1.277       .  A
Cu163      Cu164   2.376       .  S
C167        C421   1.476       .  S
C168        C381   1.485       .  S
O169       Cu177   2.012       .  S
O169       C1171   1.278       .  A
O170       Cu177   2.012   1_554  S
O170       C1172   1.278       .  A
O171       Cu177   2.008   1_545  S
O171       C1173   1.277       .  A
O172       Cu673   2.007       .  S
O172       C1174   1.277       .  A
O173       Cu674   2.010       .  S
O173        C182   1.278       .  A
O174       Cu178   2.006   1_545  S
O174        C181   1.277       .  A
O175       Cu178   2.013   1_554  S
O175        C180   1.278       .  A
O176       Cu178   2.013       .  S
O176        C179   1.279       .  A
Cu177       O668   2.007       .  S
Cu177     Cu1170   2.375       .  S
Cu178       O669   2.010       .  S
Cu178     Cu1169   2.375   1_455  S
C179       O1161   1.278   1_455  A
C179        C368   1.485   1_455  S
C180       O1162   1.278   1_455  A
C180        C488   1.481       .  S
C181       O1163   1.277   1_455  A
C181        C196   1.466       .  S
C182       O1164   1.277   1_455  A
C182        C195   1.467       .  S
O183       Cu191   2.012       .  S
O183       C1185   1.278       .  A
O184       Cu191   2.010   1_554  S
O184       C1186   1.278       .  A
O185       Cu191   2.007       .  S
O185       C1187   1.278       .  A
O186       Cu191   2.009       .  S
O186       C1188   1.278       .  A
O187       Cu192   2.006       .  S
O187        C196   1.277       .  A
O188       Cu192   2.010       .  S
O188        C195   1.278       .  A
O189       Cu192   2.013   1_554  S
O189        C194   1.278       .  A
O190       Cu192   2.014       .  S
O190        C193   1.278   1_455  A
Cu191     Cu1184   2.376       .  S
Cu192     Cu1183   2.376   1_455  S
C193       O1175   1.278       .  A
C193        C358   1.480       .  S
C194       O1176   1.278   1_455  A
C194        C481   1.482       .  S
C195       O1177   1.278   1_455  A
C196       O1178   1.278   1_455  A
O197       Cu701   2.009       .  S
O197        C207   1.277       .  A
O198       Cu205   2.005       .  S
O198        C208   1.277       .  A
O199       Cu205   2.007   1_554  S
O199        C705   1.278       .  A
O200       Cu701   2.010       .  S
O200        C210   1.278       .  A
O201       Cu206   2.014       .  S
O201        C210   1.279       .  A
O202       Cu206   2.013   1_554  S
O202        C209   1.278       .  A
O203       Cu702   2.007       .  S
O203        C208   1.277       .  A
O204       Cu206   2.011       .  S
O204        C207   1.278       .  A
Cu205       O693   2.009   1_545  S
Cu205       O696   2.010       .  S
Cu205      Cu702   2.375       .  S
Cu206       O699   2.007       .  S
Cu206      Cu701   2.375       .  S
C207        C223   1.468       .  S
C208        C224   1.465       .  S
C209        O695   1.278       .  A
C209        C468   1.480       .  S
C210        C844   1.482       .  S
O211       Cu219   2.017       .  S
O211        C221   1.279       .  A
O212       Cu219   2.019   1_554  S
O212        C222   1.279       .  A
O213       Cu219   2.008       .  S
O213        C223   1.277       .  A
O214       Cu219   2.005       .  S
O214        C224   1.277       .  A
O215       Cu220   2.007       .  S
O215        C224   1.278       .  A
O216       Cu220   2.011       .  S
O216        C223   1.278       .  A
O217       Cu220   2.010   1_554  S
O217        C222   1.278       .  A
O218       Cu220   2.012       .  S
O218        C221   1.278       .  A
Cu219      Cu220   2.375       .  S
C221        C341   1.482       .  S
C222        C461   1.483       .  S
O225       Cu729   2.011       .  S
O225       C1227   1.278   1_455  A
O226       Cu233   2.006   1_545  S
O226       C1228   1.277   1_455  A
O227       Cu233   2.011       .  S
O227        C237   1.278   1_455  A
O228       Cu233   2.014       .  S
O228       C1230   1.277   1_455  A
O229       Cu234   2.024       .  S
O229        C238   1.279       .  A
O230       Cu234   2.021       .  S
O230       C1229   1.279       .  A
O231       Cu234   2.007   1_545  S
O231        C236   1.277       .  A
O232       Cu730   2.008       .  S
O232        C235   1.277       .  A
Cu233       O721   2.011       .  S
Cu233     Cu1226   2.375   1_455  S
Cu234       O728   2.008       .  S
Cu234     Cu1225   2.375       .  S
C235       O1217   1.278       .  A
C235       C1242   1.467       .  S
C236       O1218   1.277       .  A
C236       C1241   1.465       .  S
C237       O1222   1.279       .  A
C237        C371   1.486       .  S
C238       O1220   1.277       .  A
C238        C291   1.467       .  S
O239       Cu247   2.008       .  S
O239       C1241   1.278       .  A
O240       Cu247   2.009       .  S
O240       C1242   1.278       .  A
O241       Cu247   2.015       .  S
O241       C1243   1.277       .  A
O242       Cu247   2.014       .  S
O242       C1244   1.278       .  A
O243       Cu248   2.013       .  S
O243        C252   1.278   1_455  A
O244       Cu248   2.014       .  S
O244        C251   1.277   1_455  A
O245       Cu248   2.010       .  S
O245        C250   1.278   1_455  A
O246       Cu248   2.006       .  S
O246        C249   1.277   1_455  A
Cu247     Cu1240   2.377       .  S
Cu248     Cu1239   2.377   1_455  S
C249       O1231   1.278       .  A
C249       C1228   1.465       .  S
C250       O1232   1.278       .  A
C250       C1227   1.467       .  S
C251       O1233   1.277       .  A
C251        C308   1.463       .  S
C252       O1234   1.278       .  A
C252        C361   1.480       .  S
O253       Cu261   2.013       .  S
O253        C263   1.277       .  A
O254       Cu261   2.011       .  S
O254        C264   1.278       .  A
O255       Cu261   2.006       .  S
O255        C265   1.277       .  A
O256       Cu757   2.008       .  S
O256        C266   1.277       .  A
O257       Cu758   2.011       .  S
O257        C266   1.278       .  A
O258       Cu262   2.007       .  S
O258        C265   1.278       .  A
O259       Cu262   2.015       .  S
O259        C264   1.278       .  A
O260       Cu262   2.016       .  S
O260        C263   1.278       .  A
Cu261       O752   2.008   1_545  S
Cu261      Cu262   2.376       .  S
Cu262       O753   2.011   1_545  S
C263        C322   1.463       .  S
C264        C351   1.483       .  S
C265        C279   1.465       .  S
C266        C280   1.467       .  S
O267       Cu275   2.010       .  S
O267        C277   1.278       .  A
O268       Cu275   2.012       .  S
O268        C278   1.276       .  A
O269       Cu275   2.008       .  S
O269        C279   1.278       .  A
O270       Cu275   2.011       .  S
O270        C280   1.278       .  A
O271       Cu276   2.009       .  S
O271        C280   1.277       .  A
O272       Cu276   2.004       .  S
O272        C279   1.277       .  A
O273       Cu276   2.023       .  S
O273        C278   1.279       .  A
O274       Cu276   2.023       .  S
O274        C277   1.279       .  A
Cu275      Cu276   2.376       .  S
C277        C338   1.482       .  S
C278        C334   1.466       .  S
O281       Cu289   2.016       .  S
O281        C787   1.277       .  A
O282       Cu289   2.018       .  S
O282        C788   1.278       .  A
O283      Cu1281   2.006       .  S
O283        C789   1.278       .  A
O284       Cu289   2.007       .  S
O284        C790   1.278       .  A
O285       Cu290   1.999       .  S
O285        C294   1.276       .  A
O286      Cu1282   2.001       .  S
O286        C293   1.276       .  A
O287       Cu290   2.026       .  S
O287        C292   1.279       .  A
O288       Cu290   2.023       .  S
O288        C291   1.279   1_545  A
Cu289      O1275   2.006       .  S
Cu289      Cu786   2.377       .  S
Cu290      O1278   2.001       .  S
Cu290      Cu785   2.377   1_545  S
C291        O777   1.277       .  A
C292        O778   1.278   1_545  A
C292        C411   1.480       .  S
C293        O779   1.278   1_545  A
C293        C320   1.463       .  S
C294        O780   1.278   1_545  A
C294        C319   1.462       .  S
O295       Cu303   2.008   1_455  S
O295        C305   1.278       .  A
O296      Cu1295   2.006       .  S
O296        C306   1.278       .  A
O297      Cu1295   2.009       .  S
O297       C1299   1.277       .  A
O298       Cu303   2.009       .  S
O298        C308   1.276       .  A
O299       Cu304   2.020       .  S
O299        C308   1.278       .  A
O300       Cu304   2.018       .  S
O300        C307   1.279       .  A
O301      Cu1296   1.997       .  S
O301        C306   1.276       .  A
O302       Cu304   2.002   1_455  S
O302        C305   1.277       .  A
Cu303      O1288   2.006       .  S
Cu303      O1289   2.009       .  S
Cu303      Cu304   2.378       .  S
Cu304      O1293   1.997       .  S
C305        C336   1.464       .  S
C306        C335   1.461       .  S
C307       O1289   1.277       .  A
C307        C398   1.480       .  S
O309       Cu317   2.005       .  S
O309        C815   1.276       .  A
O310       Cu317   1.995       .  S
O310        C816   1.276       .  A
O311       Cu317   2.011       .  S
O311        C817   1.278       .  A
O312       Cu317   2.018       .  S
O312        C818   1.278       .  A
O313       Cu318   2.010       .  S
O313        C322   1.277       .  A
O314       Cu318   2.006       .  S
O314        C321   1.276       .  A
O315       Cu318   2.013       .  S
O315        C320   1.278       .  A
O316       Cu318   2.000       .  S
O316        C319   1.277       .  A
Cu317      Cu814   2.371       .  S
Cu318      Cu813   2.371   1_545  S
C319        O805   1.276   1_545  A
C320        O806   1.276   1_545  A
C321        O807   1.278   1_545  A
C321        C388   1.500       .  S
C322        O808   1.278   1_545  A
O323       Cu331   2.007       .  S
O323        C333   1.277       .  A
O324       Cu331   2.011       .  S
O324        C334   1.276       .  A
O325       Cu331   2.003       .  S
O325        C335   1.278       .  A
O326       Cu331   2.010       .  S
O326        C336   1.278       .  A
O327       Cu332   2.000       .  S
O327        C336   1.276       .  A
O328       Cu332   1.998       .  S
O328        C335   1.276       .  A
O329       Cu332   2.024       .  S
O329        C334   1.279       .  A
O330       Cu332   2.021       .  S
O330        C333   1.280       .  A
Cu331      Cu332   2.376       .  S
C333        C378   1.485       .  S
C337        C338   1.412       .  A
C337        C342   1.411       .  A
C337       Br344   1.930       .  S
C338        C339   1.412       .  A
C339        C340   1.408       .  A
C339       Br346   1.932       .  S
C340        C341   1.410       .  A
C340       Br345   1.931       .  S
C341        C342   1.413       .  A
C342       Br343   1.932       .  S
C347        C352   1.409       .  A
C347        C844   1.413       .  A
C347       Br354   1.933       .  S
C348        C706   1.482       .  S
C348        C349   1.412       .  A
C348        C843   1.413   1_545  A
C349        C350   1.409       .  A
C349       Br356   1.933       .  S
C350        C351   1.413       .  A
C350       Br355   1.934       .  S
C351        C848   1.412   1_545  A
C352        C847   1.412       .  A
C352       Br353   1.931       .  S
C357        C358   1.411   1_455  A
C357        C362   1.409       .  A
C357       Br364   1.932       .  S
C358       C1351   1.412       .  A
C359        C360   1.409       .  A
C359       C1350   1.412       .  A
C359       Br366   1.932       .  S
C360       C1353   1.411       .  A
C360       Br365   1.931       .  S
C361        C362   1.412   1_655  A
C361       C1352   1.411       .  A
C362       Br363   1.932       .  S
C367        C368   1.414   1_545  A
C367        C372   1.411       .  A
C367       Br374   1.934       .  S
C368       C1857   1.412   1_655  A
C369        C370   1.409       .  A
C369       C1856   1.412       .  A
C369       Br376   1.933       .  S
C370       C1859   1.414       .  A
C370       Br375   1.934       .  S
C371        C372   1.413   1_565  A
C371       C1858   1.414   1_655  A
C372       Br373   1.931       .  S
C377        C378   1.413       .  A
C377        C382   1.410       .  A
C377       Br384   1.934       .  S
C378        C379   1.414       .  A
C379        C380   1.410       .  A
C379       Br386   1.934       .  S
C380        C381   1.413       .  A
C380       Br385   1.934       .  S
C381        C382   1.414       .  A
C382       Br383   1.935       .  S
C387        C392   1.412       .  A
C387        C884   1.421       .  A
C387       Br394   1.941       .  S
C388        C389   1.420   1_545  A
C388        C883   1.421       .  A
C389        C390   1.410       .  A
C389       Br396   1.942       .  S
C390        C887   1.421   1_565  A
C390       Br395   1.942       .  S
C391        C392   1.420       .  A
C391        C886   1.421       .  A
C392       Br393   1.941       .  S
C397        C398   1.412   1_455  A
C397        C402   1.409       .  A
C397       Br404   1.931       .  S
C398       C1391   1.412       .  A
C399        C400   1.409       .  A
C399       C1390   1.412       .  A
C399       Br406   1.931       .  S
C400       C1393   1.411       .  A
C400       Br405   1.932       .  S
C401        C402   1.412   1_655  A
C401       C1392   1.411       .  A
C402       Br403   1.933       .  S
C407        C412   1.410       .  A
C407        C904   1.409       .  A
C407       Br414   1.928       .  S
C408        C903   1.409       .  A
C408       C1401   1.409       .  A
C409        C410   1.411       .  A
C409       C1400   1.409       .  A
C409       Br416   1.928       .  S
C410       C1899   1.410       .  A
C410       Br415   1.927       .  S
C411        C412   1.409       .  A
C411       C1898   1.410       .  A
C412       Br413   1.926       .  S
C417        C418   1.410       .  A
C417        C422   1.410       .  A
C417       Br424   1.929       .  S
C418        C419   1.410       .  A
C419        C420   1.408       .  A
C419       Br426   1.929       .  S
C420        C421   1.408       .  A
C420       Br425   1.929       .  S
C421        C422   1.410       .  A
C422       Br423   1.930       .  S
C427        C432   1.407       .  A
C427        C924   1.415       .  A
C427       Br434   1.937       .  S
C428        C429   1.415       .  A
C428        C923   1.415       .  A
C429        C430   1.409       .  A
C429       Br436   1.937       .  S
C430        C431   1.417       .  A
C430       Br435   1.937       .  S
C431        C928   1.414       .  A
C432        C927   1.414       .  A
C432       Br433   1.934       .  S
C437        C438   1.416   1_455  A
C437        C442   1.408       .  A
C437       Br444   1.936       .  S
C438       C1431   1.417       .  A
C439        C440   1.411       .  A
C439       C1430   1.417       .  A
C439       Br446   1.936       .  S
C440       C1433   1.416       .  A
C440       Br445   1.936       .  S
C441        C442   1.416   1_655  A
C441       C1432   1.416       .  A
C442       Br443   1.937       .  S
C447        C452   1.410       .  A
C447       C1440   1.410       .  A
C447       Br454   1.930       .  S
C448       C1439   1.410       .  A
C448        C945   1.408       .  A
C449        C450   1.409       .  A
C449        C944   1.408   1_565  A
C449       Br456   1.929       .  S
C450        C947   1.410   1_565  A
C450       Br455   1.929       .  S
C451        C946   1.410       .  A
C451       C1444   1.410       .  A
C452       C1443   1.410       .  A
C452       Br453   1.929       .  S
C457        C458   1.412       .  A
C457        C462   1.409       .  A
C457       Br464   1.933       .  S
C458        C459   1.412       .  A
C459        C460   1.410       .  A
C459       Br466   1.931       .  S
C460        C461   1.412       .  A
C460       Br465   1.931       .  S
C461        C462   1.412       .  A
C462       Br463   1.933       .  S
C467        C472   1.408       .  A
C467        C964   1.412       .  A
C467       Br474   1.933       .  S
C468        C469   1.412       .  A
C468        C963   1.412       .  A
C469        C470   1.408       .  A
C469       Br476   1.931       .  S
C470        C471   1.411       .  A
C470       Br475   1.931       .  S
C471        C968   1.412       .  A
C472        C967   1.412       .  A
C472       Br473   1.933       .  S
C477        C482   1.408       .  A
C477       C1470   1.413       .  A
C477       Br484   1.933       .  S
C478        C479   1.412       .  A
C478       C1469   1.413   1_455  A
C479        C480   1.409       .  A
C479       Br486   1.931       .  S
C480        C481   1.412       .  A
C480       Br485   1.932       .  S
C481       C1474   1.412   1_455  A
C482       C1473   1.412       .  A
C482       Br483   1.933       .  S
C487        C488   1.412   1_545  A
C487        C492   1.409       .  A
C487       Br494   1.932       .  S
C488       C1977   1.412   1_455  A
C489        C490   1.408       .  A
C489       C1976   1.412       .  A
C489       Br496   1.932       .  S
C490       C1979   1.412       .  A
C490       Br495   1.933       .  S
C491        C492   1.411   1_565  A
C491       C1978   1.412   1_455  A
C492       Br493   1.931       .  S
O497       Cu505   2.008       .  S
O497       C1499   1.278       .  A
O498        C508   1.276       .  A
O499       Cu505   2.009       .  S
O499       C1501   1.278       .  A
O500       C1502   1.278       .  A
O501       Cu506   2.006       .  S
O501        C510   1.277       .  A
O502        C509   1.277       .  A
O503       Cu506   2.016       .  S
O503       C1500   1.278       .  A
O504        C507   1.279       .  A
Cu505     Cu1002   2.377       .  S
Cu506     Cu1001   2.377   1_455  S
C507       O1489   1.278   1_455  A
C507        C987   1.480       .  S
C508       O1495   1.278       .  A
C508        C565   1.462       .  S
C509       O1491   1.278   1_455  A
C509        C521   1.466       .  S
C510       O1492   1.278   1_455  A
C510        C522   1.466       .  S
O511       Cu519   2.008       .  S
O511        C521   1.278       .  A
O512       Cu519   2.010       .  S
O512        C522   1.278       .  A
O513       Cu519   2.014       .  S
O513        C523   1.277       .  A
O514       Cu519   2.014       .  S
O514        C524   1.278       .  A
O515       Cu520   2.010       .  S
O515       C1516   1.278       .  A
O516       Cu520   2.012       .  S
O516       C1515   1.277       .  A
O517       Cu520   2.006       .  S
O517       C1514   1.277       .  A
O518       Cu520   2.008       .  S
O518       C1513   1.277       .  A
Cu519     Cu1512   2.376   1_455  S
Cu520     Cu1511   2.376       .  S
C521       O1510   1.277   1_455  A
C522       O1509   1.277   1_455  A
C523       O1508   1.277   1_455  A
C523       C1569   1.462       .  S
C524       O1507   1.278   1_455  A
C524        C974   1.482       .  S
O525       Cu533   2.010   1_565  S
O525        C535   1.278       .  A
O526        C536   1.278       .  A
O527       Cu533   2.006       .  S
O527        C537   1.276       .  A
O528       Cu533   2.008       .  S
O528        C538   1.278       .  A
O529       Cu534   2.007       .  S
O529        C538   1.278       .  A
O530       Cu534   2.006       .  S
O530        C537   1.276       .  A
O531        C536   1.277       .  A
O532       Cu534   2.007   1_565  S
O532        C535   1.277       .  A
Cu533      Cu534   2.377       .  S
C535        C550   1.466       .  S
C536        C549   1.466       .  S
C537        C593   1.456       .  S
C538        C967   1.479       .  S
O539       Cu547   2.005       .  S
O539        C549   1.277       .  A
O540       Cu547   2.006       .  S
O540        C550   1.277       .  A
O541       Cu547   2.019       .  S
O541        C551   1.278       .  A
O542       Cu547   2.016       .  S
O542        C552   1.279       .  A
O543       Cu548   2.010       .  S
O543        C552   1.278       .  A
O544       Cu548   2.013       .  S
O544        C551   1.277       .  A
O545       Cu548   2.010       .  S
O545        C550   1.278       .  A
O546       Cu548   2.011       .  S
O546        C549   1.278       .  A
Cu547      Cu548   2.376       .  S
C551        C605   1.464       .  S
C552        C954   1.482       .  S
O553      Cu1553   2.003   1_455  S
O553        C563   1.277   1_565  A
O554       Cu561   2.005       .  S
O554        C564   1.278   1_565  A
O555       Cu561   2.012       .  S
O555        C565   1.277       .  A
O556       Cu561   2.013       .  S
O556        C566   1.278   1_565  A
O557       Cu562   2.017       .  S
O558       Cu562   2.015       .  S
O559       Cu562   2.006       .  S
O560      Cu1554   1.998   1_455  S
Cu561      O1545   2.003       .  S
Cu562      O1552   1.998       .  S
C563        C592   1.461       .  S
C564        C591   1.464       .  S
C566        C944   1.476       .  S
O567       Cu575   2.010       .  S
O567        C577   1.277       .  A
O568       Cu575   2.005       .  S
O568       C1570   1.277       .  A
O569       Cu575   1.997       .  S
O569        C579   1.276       .  A
O570      Cu1567   2.009   1_455  S
O570        C580   1.277       .  A
O571       Cu576   2.000   1_455  S
O571        C580   1.277       .  A
O572      Cu1568   2.007       .  S
O572        C579   1.277       .  A
O573       Cu576   2.013       .  S
O573        C578   1.278       .  A
O574       Cu576   2.017       .  S
O574       C1569   1.278   1_655  A
Cu575      O1562   2.009       .  S
Cu575     Cu1568   2.374       .  S
Cu576      O1564   2.007       .  S
Cu576     Cu1567   2.374       .  S
C577       O1566   1.278       .  A
C577       C1515   1.462       .  S
C578       O1560   1.277       .  A
C578        C934   1.492       .  S
C579        C608   1.462       .  S
C580        C607   1.464       .  S
O581       Cu589   2.000       .  S
O581        C591   1.276   1_565  A
O582       Cu589   2.005       .  S
O582        C592   1.277   1_565  A
O583       Cu589   2.010       .  S
O583        C593   1.277   1_565  A
O584       Cu589   2.007       .  S
O584        C594   1.277   1_565  A
O585       Cu590   2.000       .  S
O586       Cu590   2.002       .  S
O587       Cu590   1.998       .  S
O588       Cu590   2.010       .  S
C594        C924   1.485       .  S
O595       Cu603   2.017       .  S
O595        C605   1.278       .  A
O596       Cu603   2.019       .  S
O596        C606   1.278       .  A
O597       Cu603   2.007       .  S
O597        C607   1.278       .  A
O598       Cu603   2.001       .  S
O598        C608   1.277       .  A
O599       Cu604   2.004       .  S
O599        C608   1.277       .  A
O600       Cu604   2.003       .  S
O600        C607   1.277       .  A
O601       Cu604   2.016       .  S
O601        C606   1.278       .  A
O602       Cu604   2.015       .  S
O602        C605   1.277       .  A
Cu603      Cu604   2.378       .  S
C606        C914   1.477       .  S
O609       Cu617   2.020       .  S
O610       Cu617   2.023       .  S
O611      Cu1609   2.002       .  S
O612       Cu617   2.005       .  S
O613       Cu618   2.003       .  S
O613        C622   1.277   1_565  A
O614      Cu1610   2.004       .  S
O614        C621   1.277   1_565  A
O615       Cu618   2.017       .  S
O615        C620   1.278   1_565  A
O616       Cu618   2.015       .  S
O616        C619   1.278   1_565  A
Cu617      O1603   2.002       .  S
Cu618      O1606   2.004       .  S
C619        C947   1.478       .  S
C620        C904   1.479       .  S
C621        C649   1.462       .  S
C622        C650   1.463       .  S
O623       Cu631   2.005       .  S
O623        C633   1.277       .  A
O624       Cu631   2.007       .  S
O624        C634   1.277       .  A
O625      Cu1623   1.996       .  S
O625        C635   1.276       .  A
O626       Cu631   2.010   1_455  S
O626        C636   1.278       .  A
O627       Cu632   2.002   1_455  S
O627        C636   1.277       .  A
O628      Cu1624   2.005       .  S
O628        C635   1.277       .  A
O629       Cu632   2.015       .  S
O629        C634   1.279       .  A
O630       Cu632   2.015       .  S
O630        C633   1.278       .  A
Cu631      O1617   1.996       .  S
Cu631      Cu632   2.373       .  S
Cu632      O1620   2.005       .  S
C633        C937   1.492       .  S
C634        C897   1.479       .  S
C635        C662   1.460       .  S
C636        C661   1.465       .  S
O637       Cu645   2.014       .  S
O638       Cu645   2.013       .  S
O639       Cu645   2.004       .  S
O640       Cu645   2.001       .  S
O641       Cu646   2.006       .  S
O641        C650   1.277   1_565  A
O642       Cu646   2.001       .  S
O642        C649   1.277   1_565  A
O643       Cu646   2.000       .  S
O643        C648   1.276   1_565  A
O644       Cu646   2.000       .  S
O644        C647   1.275   1_565  A
C647        C887   1.500       .  S
C648        C927   1.486       .  S
O651       Cu659   2.005       .  S
O651        C661   1.277       .  A
O652       Cu659   2.000       .  S
O652        C662   1.277       .  A
O653       Cu659   2.016       .  S
O653        C663   1.278       .  A
O654       Cu659   2.015       .  S
O654        C664   1.279       .  A
O655       Cu660   2.012       .  S
O655        C664   1.278       .  A
O656       Cu660   2.013       .  S
O656        C663   1.278       .  A
O657       Cu660   2.000       .  S
O657        C662   1.277       .  A
O658       Cu660   2.007       .  S
O658        C661   1.277       .  A
Cu659      Cu660   2.376       .  S
C663        C917   1.476       .  S
C664        C877   1.485       .  S
O665       Cu673   2.012       .  S
O665       C1667   1.278       .  A
O666       Cu673   2.012   1_554  S
O666       C1668   1.278       .  A
O667       Cu673   2.008       .  S
O667       C1669   1.277       .  A
O668       C1670   1.277       .  A
O669        C678   1.278       .  A
O670       Cu674   2.006       .  S
O670        C677   1.277       .  A
O671       Cu674   2.013   1_554  S
O671        C676   1.278       .  A
O672       Cu674   2.013       .  S
O672        C675   1.279       .  A
Cu673     Cu1666   2.375       .  S
Cu674     Cu1665   2.375   1_455  S
C675       O1657   1.278   1_455  A
C675        C864   1.485   1_455  S
C676       O1658   1.278   1_455  A
C676        C984   1.481       .  S
C677       O1659   1.277   1_455  A
C677        C692   1.466       .  S
C678       O1660   1.277   1_455  A
C678        C691   1.467       .  S
O679       Cu687   2.012       .  S
O679       C1681   1.278       .  A
O680       Cu687   2.010   1_554  S
O680       C1682   1.278       .  A
O681       Cu687   2.008       .  S
O681       C1683   1.278       .  A
O682       Cu687   2.009       .  S
O682       C1684   1.278       .  A
O683       Cu688   2.006       .  S
O683        C692   1.277       .  A
O684       Cu688   2.010       .  S
O684        C691   1.278       .  A
O685       Cu688   2.013   1_554  S
O685        C690   1.278       .  A
O686       Cu688   2.014       .  S
O686        C689   1.278   1_455  A
Cu687     Cu1680   2.376       .  S
Cu688     Cu1679   2.376   1_455  S
C689       O1671   1.278       .  A
C689        C854   1.480       .  S
C690       O1672   1.278   1_455  A
C690        C977   1.482       .  S
C691       O1673   1.278   1_455  A
C692       O1674   1.278   1_455  A
O693        C703   1.277       .  A
O694       Cu701   2.005       .  S
O694        C704   1.277       .  A
O695       Cu701   2.007   1_554  S
O696        C706   1.278       .  A
O697       Cu702   2.014       .  S
O697        C706   1.279       .  A
O698       Cu702   2.013   1_554  S
O698        C705   1.278       .  A
O699        C704   1.277       .  A
O700       Cu702   2.011   1_565  S
O700        C703   1.278       .  A
C703        C719   1.468       .  S
C704        C720   1.465       .  S
C705        C964   1.480       .  S
O707       Cu715   2.017       .  S
O707        C717   1.279       .  A
O708       Cu715   2.019   1_554  S
O708        C718   1.279       .  A
O709       Cu715   2.008       .  S
O709        C719   1.277       .  A
O710       Cu715   2.005       .  S
O710        C720   1.277       .  A
O711       Cu716   2.007       .  S
O711        C720   1.278       .  A
O712       Cu716   2.011       .  S
O712        C719   1.278       .  A
O713       Cu716   2.010   1_554  S
O713        C718   1.278       .  A
O714       Cu716   2.012       .  S
O714        C717   1.278       .  A
Cu715      Cu716   2.375       .  S
C717        C837   1.482       .  S
C718        C957   1.483       .  S
O721       C1723   1.278   1_455  A
O722       Cu729   2.006       .  S
O722       C1724   1.277   1_455  A
O723       Cu729   2.011       .  S
O723        C733   1.278   1_455  A
O724       Cu729   2.014       .  S
O724       C1726   1.277   1_455  A
O725       Cu730   2.024       .  S
O725        C734   1.279       .  A
O726       Cu730   2.021       .  S
O726       C1725   1.279       .  A
O727       Cu730   2.007       .  S
O727        C732   1.277       .  A
O728        C731   1.277       .  A
Cu729     Cu1722   2.375   1_455  S
Cu730     Cu1721   2.375       .  S
C731       O1713   1.278       .  A
C731       C1738   1.467       .  S
C732       O1714   1.277       .  A
C732       C1737   1.465       .  S
C733       O1718   1.279       .  A
C733        C867   1.486       .  S
C734       O1716   1.277       .  A
C734        C787   1.467       .  S
O735       Cu743   2.008       .  S
O735       C1737   1.278       .  A
O736       Cu743   2.009       .  S
O736       C1738   1.278       .  A
O737       Cu743   2.015       .  S
O737       C1739   1.277       .  A
O738       Cu743   2.014       .  S
O738       C1740   1.278       .  A
O739       Cu744   2.013       .  S
O739        C748   1.278   1_455  A
O740       Cu744   2.014       .  S
O740        C747   1.277   1_455  A
O741       Cu744   2.010       .  S
O741        C746   1.278   1_455  A
O742       Cu744   2.006       .  S
O742        C745   1.277   1_455  A
Cu743     Cu1736   2.377       .  S
Cu744     Cu1735   2.377   1_455  S
C745       O1727   1.278       .  A
C745       C1724   1.465       .  S
C746       O1728   1.278       .  A
C746       C1723   1.467       .  S
C747       O1729   1.277       .  A
C747        C804   1.463       .  S
C748       O1730   1.278       .  A
C748        C857   1.480       .  S
O749       Cu757   2.013       .  S
O749        C759   1.277       .  A
O750       Cu757   2.011       .  S
O750        C760   1.278       .  A
O751       Cu757   2.006       .  S
O751        C761   1.277       .  A
O752        C762   1.277       .  A
O753        C762   1.278       .  A
O754       Cu758   2.007       .  S
O754        C761   1.278       .  A
O755       Cu758   2.015       .  S
O755        C760   1.278       .  A
O756       Cu758   2.016       .  S
O756        C759   1.278       .  A
Cu757      Cu758   2.376       .  S
C759        C818   1.463       .  S
C760        C847   1.483       .  S
C761        C775   1.465       .  S
C762        C776   1.467       .  S
O763       Cu771   2.010       .  S
O763        C773   1.278       .  A
O764       Cu771   2.012       .  S
O764        C774   1.276       .  A
O765       Cu771   2.008       .  S
O765        C775   1.278       .  A
O766       Cu771   2.011       .  S
O766        C776   1.278       .  A
O767       Cu772   2.009       .  S
O767        C776   1.277       .  A
O768       Cu772   2.004       .  S
O768        C775   1.277       .  A
O769       Cu772   2.023       .  S
O769        C774   1.279       .  A
O770       Cu772   2.023       .  S
O770        C773   1.279       .  A
Cu771      Cu772   2.376       .  S
C773        C834   1.482       .  S
C774        C830   1.466       .  S
O777       Cu785   2.016       .  S
O778       Cu785   2.018       .  S
O779      Cu1777   2.006       .  S
O780       Cu785   2.007       .  S
O781       Cu786   1.999       .  S
O781        C790   1.276       .  A
O782      Cu1778   2.001       .  S
O782        C789   1.276       .  A
O783       Cu786   2.026       .  S
O783        C788   1.279       .  A
O784       Cu786   2.023       .  S
O784        C787   1.279       .  A
Cu785      O1771   2.006       .  S
Cu786      O1774   2.001       .  S
C788        C907   1.480       .  S
C789        C816   1.463       .  S
C790        C815   1.462       .  S
O791       Cu799   2.008   1_455  S
O791        C801   1.278       .  A
O792      Cu1791   2.006       .  S
O792        C802   1.278       .  A
O793      Cu1791   2.009       .  S
O793       C1795   1.277       .  A
O794       Cu799   2.009       .  S
O794        C804   1.276       .  A
O795       Cu800   2.020       .  S
O795        C804   1.278       .  A
O796       Cu800   2.018       .  S
O796        C803   1.279       .  A
O797      Cu1792   1.997       .  S
O797        C802   1.276       .  A
O798       Cu800   2.002   1_455  S
O798        C801   1.277       .  A
Cu799      O1784   2.006       .  S
Cu799      O1785   2.009       .  S
Cu799      Cu800   2.378       .  S
Cu800      O1789   1.997       .  S
C801        C832   1.464       .  S
C802        C831   1.461       .  S
C803       O1785   1.277       .  A
C803        C894   1.480       .  S
O805       Cu813   2.005       .  S
O806       Cu813   1.995       .  S
O807       Cu813   2.011       .  S
O808       Cu813   2.018       .  S
O809       Cu814   2.010       .  S
O809        C818   1.277       .  A
O810       Cu814   2.006       .  S
O810        C817   1.276       .  A
O811       Cu814   2.013       .  S
O811        C816   1.278       .  A
O812       Cu814   2.000       .  S
O812        C815   1.277       .  A
C817        C884   1.500       .  S
O819       Cu827   2.007       .  S
O819        C829   1.277       .  A
O820       Cu827   2.011       .  S
O820        C830   1.276       .  A
O821       Cu827   2.003       .  S
O821        C831   1.278       .  A
O822       Cu827   2.010       .  S
O822        C832   1.278       .  A
O823       Cu828   2.000       .  S
O823        C832   1.276       .  A
O824       Cu828   1.998       .  S
O824        C831   1.276       .  A
O825       Cu828   2.024       .  S
O825        C830   1.279       .  A
O826       Cu828   2.021       .  S
O826        C829   1.280       .  A
Cu827      Cu828   2.376       .  S
C829        C874   1.485       .  S
C833        C834   1.412       .  A
C833        C838   1.411       .  A
C833       Br840   1.930       .  S
C834        C835   1.412       .  A
C835        C836   1.408       .  A
C835       Br842   1.932       .  S
C836        C837   1.410       .  A
C836       Br841   1.931       .  S
C837        C838   1.413       .  A
C838       Br839   1.932       .  S
C843        C848   1.409       .  A
C843       Br850   1.933       .  S
C844        C845   1.412       .  A
C845        C846   1.409       .  A
C845       Br852   1.933       .  S
C846        C847   1.413       .  A
C846       Br851   1.934       .  S
C848       Br849   1.931       .  S
C853        C854   1.411   1_455  A
C853        C858   1.409       .  A
C853       Br860   1.932       .  S
C854       C1847   1.412       .  A
C855       C1846   1.412       .  A
C855        C856   1.409       .  A
C855       Br862   1.932       .  S
C856       C1849   1.411       .  A
C856       Br861   1.931       .  S
C857       C1848   1.411       .  A
C857        C858   1.412   1_655  A
C858       Br859   1.932       .  S
C863        C864   1.414       .  A
C863        C868   1.411       .  A
C863       Br870   1.934       .  S
C864       C1361   1.412   1_655  A
C865       C1360   1.412       .  A
C865        C866   1.409       .  A
C865       Br872   1.933       .  S
C866       C1363   1.414       .  A
C866       Br871   1.934       .  S
C867       C1362   1.414   1_655  A
C867        C868   1.413       .  A
C868       Br869   1.931       .  S
C873        C874   1.413       .  A
C873        C878   1.410       .  A
C873       Br880   1.934       .  S
C874        C875   1.414       .  A
C875        C876   1.410       .  A
C875       Br882   1.934       .  S
C876        C877   1.413       .  A
C876       Br881   1.934       .  S
C877        C878   1.414       .  A
C878       Br879   1.935       .  S
C883        C888   1.412       .  A
C883       Br890   1.941       .  S
C884        C885   1.420       .  A
C885        C886   1.410       .  A
C885       Br892   1.942       .  S
C886       Br891   1.942       .  S
C887        C888   1.420       .  A
C888       Br889   1.941       .  S
C893        C894   1.412   1_455  A
C893        C898   1.409       .  A
C893       Br900   1.931       .  S
C894       C1887   1.412       .  A
C895       C1886   1.412       .  A
C895        C896   1.409       .  A
C895       Br902   1.931       .  S
C896       C1889   1.411       .  A
C896       Br901   1.932       .  S
C897       C1888   1.411       .  A
C897        C898   1.412   1_655  A
C898       Br899   1.933       .  S
C903        C908   1.410       .  A
C903       Br910   1.928       .  S
C904       C1897   1.409       .  A
C905       C1896   1.409       .  A
C905        C906   1.411       .  A
C905       Br912   1.928   1_545  S
C906       C1403   1.410       .  A
C906       Br911   1.927   1_545  S
C907       C1402   1.410       .  A
C907        C908   1.409       .  A
C908       Br909   1.926       .  S
C913        C914   1.410       .  A
C913        C918   1.410       .  A
C913       Br920   1.929       .  S
C914        C915   1.410       .  A
C915        C916   1.408       .  A
C915       Br922   1.929       .  S
C916        C917   1.408       .  A
C916       Br921   1.929       .  S
C917        C918   1.410       .  A
C918       Br919   1.930       .  S
C923        C928   1.407       .  A
C923       Br930   1.937       .  S
C924        C925   1.415   1_545  A
C925        C926   1.409       .  A
C925       Br932   1.937       .  S
C926        C927   1.417   1_565  A
C926       Br931   1.937       .  S
C928       Br929   1.934       .  S
C933        C934   1.416   1_455  A
C933        C938   1.408       .  A
C933       Br940   1.936       .  S
C934       C1927   1.417       .  A
C935       C1926   1.417       .  A
C935        C936   1.411       .  A
C935       Br942   1.936       .  S
C936       C1929   1.416       .  A
C936       Br941   1.936       .  S
C937       C1928   1.416       .  A
C937        C938   1.416   1_655  A
C938       Br939   1.937       .  S
C943       C1936   1.410       .  A
C943        C948   1.410       .  A
C943       Br950   1.930       .  S
C944       C1935   1.410       .  A
C945        C946   1.409       .  A
C945       Br952   1.929       .  S
C946       Br951   1.929       .  S
C947       C1940   1.410       .  A
C948       C1939   1.410       .  A
C948       Br949   1.929       .  S
C953        C954   1.412       .  A
C953        C958   1.409       .  A
C953       Br960   1.933       .  S
C954        C955   1.412       .  A
C955        C956   1.410       .  A
C955       Br962   1.931       .  S
C956        C957   1.412       .  A
C956       Br961   1.931       .  S
C957        C958   1.412       .  A
C958       Br959   1.933       .  S
C963        C968   1.408       .  A
C963       Br970   1.933       .  S
C964        C965   1.412   1_545  A
C965        C966   1.408       .  A
C965       Br972   1.931       .  S
C966        C967   1.411   1_565  A
C966       Br971   1.931       .  S
C968       Br969   1.933       .  S
C973       C1966   1.413       .  A
C973        C978   1.408       .  A
C973       Br980   1.933       .  S
C974       C1965   1.413   1_455  A
C974        C975   1.412       .  A
C975        C976   1.409       .  A
C975       Br982   1.931       .  S
C976        C977   1.412       .  A
C976       Br981   1.932       .  S
C977       C1970   1.412   1_455  A
C978       C1969   1.412       .  A
C978       Br979   1.933       .  S
C983        C984   1.412       .  A
C983        C988   1.409       .  A
C983       Br990   1.932       .  S
C984       C1481   1.412   1_455  A
C985       C1480   1.412       .  A
C985        C986   1.408       .  A
C985       Br992   1.932       .  S
C986       C1483   1.412       .  A
C986       Br991   1.933       .  S
C987       C1482   1.412   1_455  A
C987        C988   1.411       .  A
C988       Br989   1.931       .  S
O993      Cu1001   2.008       .  S
O994      Cu1497   2.011       .  S
O994       C1004   1.276   1_655  A
O995      Cu1001   2.009   1_545  S
O996      Cu1497   2.010       .  S
O997      Cu1002   2.006       .  S
O997       C1006   1.277       .  A
O998      Cu1498   2.007   1_545  S
O998       C1005   1.277       .  A
O999      Cu1002   2.016       .  S
O1000     Cu1498   2.015       .  S
O1000      C1003   1.279       .  A
Cu1001     O1490   2.011       .  S
Cu1001     O1492   2.010       .  S
Cu1002     O1494   2.007       .  S
Cu1002     O1496   2.015       .  S
C1003      C1483   1.480       .  S
C1004      C1061   1.462       .  S
C1005      C1017   1.466       .  S
C1006      C1018   1.466       .  S
O1007     Cu1015   2.008       .  S
O1007      C1017   1.278       .  A
O1008     Cu1015   2.010       .  S
O1008      C1018   1.278       .  A
O1009     Cu1015   2.014       .  S
O1009      C1019   1.277       .  A
O1010     Cu1015   2.014       .  S
O1010      C1020   1.278       .  A
O1011     Cu1016   2.010       .  S
O1012     Cu1016   2.012       .  S
O1013     Cu1016   2.006       .  S
O1014     Cu1016   2.008       .  S
C1020      C1470   1.482       .  S
O1021     Cu1029   2.010       .  S
O1021      C1031   1.278       .  A
O1022     Cu1525   2.011       .  S
O1022      C1032   1.278       .  A
O1023     Cu1029   2.006       .  S
O1023      C1033   1.276       .  A
O1024     Cu1029   2.008       .  S
O1024      C1034   1.278       .  A
O1025     Cu1030   2.007       .  S
O1025      C1034   1.278       .  A
O1026     Cu1030   2.006       .  S
O1026      C1033   1.277       .  A
O1027     Cu1526   2.005       .  S
O1027      C1032   1.277       .  A
O1028     Cu1030   2.007       .  S
O1028      C1031   1.277       .  A
Cu1029     O1518   2.011       .  S
Cu1029    Cu1030   2.377       .  S
Cu1030     O1523   2.005       .  S
C1031      C1046   1.466       .  S
C1032      C1045   1.466       .  S
C1033      C1089   1.456       .  S
C1034      C1463   1.479       .  S
O1035     Cu1043   2.005       .  S
O1035      C1045   1.277       .  A
O1036     Cu1043   2.006       .  S
O1036      C1046   1.277       .  A
O1037     Cu1043   2.019       .  S
O1037      C1047   1.278       .  A
O1038     Cu1043   2.016       .  S
O1038      C1048   1.279       .  A
O1039     Cu1044   2.010       .  S
O1039      C1048   1.278       .  A
O1040     Cu1044   2.013       .  S
O1040      C1047   1.277       .  A
O1041     Cu1044   2.010       .  S
O1041      C1046   1.278       .  A
O1042     Cu1044   2.011       .  S
O1042      C1045   1.278       .  A
Cu1043    Cu1044   2.376       .  S
C1047      C1101   1.464       .  S
C1048      C1450   1.482       .  S
O1049      C1059   1.277       .  A
O1050     Cu1057   2.005       .  S
O1050      C1060   1.278       .  A
O1051     Cu1057   2.012   1_455  S
O1051      C1061   1.277       .  A
O1052     Cu1057   2.013       .  S
O1052      C1062   1.278   1_655  A
O1053     Cu1058   2.017   1_455  S
O1053      C1558   1.278       .  A
O1054     Cu1058   2.015       .  S
O1054      C1557   1.278   1_645  A
O1055     Cu1058   2.006       .  S
O1055      C1556   1.277       .  A
O1056      C1555   1.277       .  A
Cu1057    Cu1554   2.378       .  S
Cu1058    Cu1553   2.378   1_545  S
C1059      O1552   1.277       .  A
C1059      C1088   1.461       .  S
C1060      O1551   1.277       .  A
C1060      C1087   1.464       .  S
C1061      O1550   1.278   1_455  A
C1062      O1549   1.278       .  A
C1062      C1440   1.476       .  S
O1063     Cu1071   2.010   1_455  S
O1063      C1073   1.277       .  A
O1064     Cu1071   2.005       .  S
O1065     Cu1071   1.997       .  S
O1065      C1075   1.276       .  A
O1066      C1076   1.277       .  A
O1067     Cu1072   2.000       .  S
O1067      C1076   1.277       .  A
O1068      C1075   1.277       .  A
O1069     Cu1072   2.013       .  S
O1069      C1074   1.278       .  A
O1070     Cu1072   2.017       .  S
C1074      C1430   1.492       .  S
C1075      C1104   1.462       .  S
C1076      C1103   1.464       .  S
O1077     Cu1085   2.000       .  S
O1077      C1087   1.276       .  A
O1078     Cu1085   2.005       .  S
O1078      C1088   1.277       .  A
O1079     Cu1085   2.010       .  S
O1079      C1089   1.277       .  A
O1080     Cu1085   2.007       .  S
O1080      C1090   1.277       .  A
O1081     Cu1086   2.000       .  S
O1081      C1586   1.277       .  A
O1082     Cu1086   2.002       .  S
O1082      C1585   1.276       .  A
O1083     Cu1086   1.998       .  S
O1083      C1584   1.276       .  A
O1084     Cu1086   2.010       .  S
O1084      C1583   1.278       .  A
Cu1085    Cu1582   2.375       .  S
Cu1086    Cu1581   2.375   1_545  S
C1087      O1580   1.278       .  A
C1088      O1579   1.276       .  A
C1089      O1578   1.276       .  A
C1090      O1577   1.277       .  A
C1090      C1420   1.485       .  S
O1091     Cu1099   2.017       .  S
O1091      C1101   1.278       .  A
O1092     Cu1099   2.019       .  S
O1092      C1102   1.278       .  A
O1093     Cu1099   2.007       .  S
O1093      C1103   1.278       .  A
O1094     Cu1099   2.001       .  S
O1094      C1104   1.277       .  A
O1095     Cu1100   2.004       .  S
O1095      C1104   1.277       .  A
O1096     Cu1100   2.003       .  S
O1096      C1103   1.277       .  A
O1097     Cu1100   2.016       .  S
O1097      C1102   1.278       .  A
O1098     Cu1100   2.015       .  S
O1098      C1101   1.277       .  A
Cu1099    Cu1100   2.378       .  S
C1102      C1410   1.477       .  S
O1105     Cu1113   2.020       .  S
O1105      C1611   1.279       .  A
O1106     Cu1113   2.023       .  S
O1106      C1612   1.279       .  A
O1107      C1613   1.277       .  A
O1108     Cu1113   2.005   1_655  S
O1108      C1614   1.277       .  A
O1109     Cu1114   2.003   1_655  S
O1109      C1118   1.277       .  A
O1110      C1117   1.277       .  A
O1111     Cu1114   2.017       .  S
O1111      C1116   1.278       .  A
O1112     Cu1114   2.015       .  S
O1112      C1115   1.278       .  A
Cu1113    Cu1610   2.377   1_545  S
Cu1114    Cu1609   2.377       .  S
C1115      O1601   1.279       .  A
C1115      C1443   1.478       .  S
C1116      O1602   1.279       .  A
C1116      C1400   1.479       .  S
C1117      O1603   1.277       .  A
C1117      C1145   1.462       .  S
C1118      O1604   1.277       .  A
C1118      C1146   1.463       .  S
O1119     Cu1127   2.005       .  S
O1119      C1129   1.277       .  A
O1120     Cu1127   2.007       .  S
O1120      C1130   1.277       .  A
O1121      C1131   1.276       .  A
O1122     Cu1127   2.010       .  S
O1122      C1132   1.278       .  A
O1123     Cu1128   2.002       .  S
O1123      C1132   1.277       .  A
O1124      C1131   1.277       .  A
O1125     Cu1128   2.015       .  S
O1125      C1130   1.279       .  A
O1126     Cu1128   2.015       .  S
O1126      C1129   1.278       .  A
Cu1127    Cu1128   2.373       .  S
C1129      C1433   1.492       .  S
C1130      C1393   1.479       .  S
C1131      C1158   1.460       .  S
C1132      C1157   1.465       .  S
O1133     Cu1141   2.014       .  S
O1133      C1639   1.278       .  A
O1134     Cu1141   2.013       .  S
O1134      C1640   1.279       .  A
O1135     Cu1141   2.004       .  S
O1135      C1641   1.277       .  A
O1136     Cu1141   2.001       .  S
O1136      C1642   1.277       .  A
O1137     Cu1142   2.006       .  S
O1137      C1146   1.277       .  A
O1138     Cu1142   2.001       .  S
O1138      C1145   1.277       .  A
O1139     Cu1142   2.000       .  S
O1139      C1144   1.276       .  A
O1140     Cu1142   2.000       .  S
O1140      C1143   1.275       .  A
Cu1141    Cu1638   2.365   1_545  S
Cu1142    Cu1637   2.365       .  S
C1143      O1629   1.278       .  A
C1143      C1383   1.500       .  S
C1144      O1630   1.279       .  A
C1144      C1423   1.486       .  S
C1145      O1631   1.277       .  A
C1146      O1632   1.277       .  A
O1147     Cu1155   2.005       .  S
O1147      C1157   1.277       .  A
O1148     Cu1155   2.000       .  S
O1148      C1158   1.277       .  A
O1149     Cu1155   2.016       .  S
O1149      C1159   1.278       .  A
O1150     Cu1155   2.015       .  S
O1150      C1160   1.279       .  A
O1151     Cu1156   2.012       .  S
O1151      C1160   1.278       .  A
O1152     Cu1156   2.013       .  S
O1152      C1159   1.278       .  A
O1153     Cu1156   2.000       .  S
O1153      C1158   1.277       .  A
O1154     Cu1156   2.007       .  S
O1154      C1157   1.277       .  A
Cu1155    Cu1156   2.376       .  S
C1159      C1413   1.476       .  S
C1160      C1373   1.485       .  S
O1161     Cu1169   2.012       .  S
O1162     Cu1169   2.012   1_554  S
O1163     Cu1169   2.008   1_545  S
O1164     Cu1665   2.007       .  S
O1165     Cu1666   2.010       .  S
O1165      C1174   1.278       .  A
O1166     Cu1170   2.006   1_545  S
O1166      C1173   1.277       .  A
O1167     Cu1170   2.013   1_554  S
O1167      C1172   1.278       .  A
O1168     Cu1170   2.013       .  S
O1168      C1171   1.279       .  A
Cu1169     O1660   2.007       .  S
Cu1170     O1661   2.010       .  S
C1171      C1360   1.485       .  S
C1172      C1480   1.481       .  S
C1173      C1188   1.466       .  S
C1174      C1187   1.467       .  S
O1175     Cu1183   2.012       .  S
O1176     Cu1183   2.010   1_554  S
O1177     Cu1183   2.007       .  S
O1178     Cu1183   2.009       .  S
O1179     Cu1184   2.006       .  S
O1179      C1188   1.277       .  A
O1180     Cu1184   2.010       .  S
O1180      C1187   1.278       .  A
O1181     Cu1184   2.013   1_554  S
O1181      C1186   1.278       .  A
O1182     Cu1184   2.014       .  S
O1182      C1185   1.278       .  A
C1185      C1350   1.480       .  S
C1186      C1473   1.481       .  S
O1189     Cu1693   2.009       .  S
O1189      C1199   1.277       .  A
O1190     Cu1197   2.005       .  S
O1190      C1200   1.277       .  A
O1191     Cu1197   2.007   1_554  S
O1191      C1697   1.278       .  A
O1192     Cu1693   2.010       .  S
O1192      C1202   1.278       .  A
O1193     Cu1198   2.014       .  S
O1193      C1202   1.279       .  A
O1194     Cu1198   2.013   1_554  S
O1194      C1201   1.278       .  A
O1195     Cu1694   2.007       .  S
O1195      C1200   1.277       .  A
O1196     Cu1198   2.011       .  S
O1196      C1199   1.278       .  A
Cu1197     O1685   2.009   1_545  S
Cu1197     O1688   2.010       .  S
Cu1197    Cu1694   2.375       .  S
Cu1198     O1691   2.007       .  S
Cu1198    Cu1693   2.375       .  S
C1199      C1215   1.467       .  S
C1200      C1216   1.465       .  S
C1201      O1687   1.278       .  A
C1201      C1460   1.480       .  S
C1202      C1836   1.482       .  S
O1203     Cu1211   2.017       .  S
O1203      C1213   1.279       .  A
O1204     Cu1211   2.019   1_554  S
O1204      C1214   1.279       .  A
O1205     Cu1211   2.008       .  S
O1205      C1215   1.277       .  A
O1206     Cu1211   2.005       .  S
O1206      C1216   1.277       .  A
O1207     Cu1212   2.007       .  S
O1207      C1216   1.278       .  A
O1208     Cu1212   2.011       .  S
O1208      C1215   1.278       .  A
O1209     Cu1212   2.010   1_554  S
O1209      C1214   1.278       .  A
O1210     Cu1212   2.012       .  S
O1210      C1213   1.278       .  A
Cu1211    Cu1212   2.375       .  S
C1213      C1333   1.482       .  S
C1214      C1453   1.483       .  S
O1217     Cu1721   2.011       .  S
O1218     Cu1225   2.006   1_545  S
O1219     Cu1225   2.011       .  S
O1219      C1229   1.278       .  A
O1220     Cu1225   2.014       .  S
O1221     Cu1226   2.024       .  S
O1221      C1230   1.279       .  A
O1222     Cu1226   2.021       .  S
O1223     Cu1226   2.007   1_545  S
O1223      C1228   1.277       .  A
O1224     Cu1722   2.008       .  S
O1224      C1227   1.277       .  A
Cu1225     O1713   2.011       .  S
Cu1226     O1720   2.008       .  S
C1229      C1363   1.486       .  S
C1230      C1283   1.467       .  S
O1231     Cu1239   2.008       .  S
O1232     Cu1239   2.009       .  S
O1233     Cu1239   2.015       .  S
O1234     Cu1239   2.014       .  S
O1235     Cu1240   2.013       .  S
O1235      C1244   1.278       .  A
O1236     Cu1240   2.014       .  S
O1236      C1243   1.277       .  A
O1237     Cu1240   2.010       .  S
O1237      C1242   1.278       .  A
O1238     Cu1240   2.006       .  S
O1238      C1241   1.277       .  A
C1243      C1300   1.463       .  S
C1244      C1353   1.480       .  S
O1245     Cu1253   2.013       .  S
O1245      C1255   1.277       .  A
O1246     Cu1253   2.010       .  S
O1246      C1256   1.278       .  A
O1247     Cu1253   2.006       .  S
O1247      C1257   1.277       .  A
O1248     Cu1749   2.008       .  S
O1248      C1258   1.277       .  A
O1249     Cu1750   2.011       .  S
O1249      C1258   1.278       .  A
O1250     Cu1254   2.007       .  S
O1250      C1257   1.278       .  A
O1251     Cu1254   2.015       .  S
O1251      C1256   1.278       .  A
O1252     Cu1254   2.016       .  S
O1252      C1255   1.278       .  A
Cu1253     O1744   2.008   1_545  S
Cu1253    Cu1254   2.376       .  S
Cu1254     O1745   2.011   1_545  S
C1255      C1314   1.463       .  S
C1256      C1343   1.483       .  S
C1257      C1271   1.465       .  S
C1258      C1272   1.467       .  S
O1259     Cu1267   2.010       .  S
O1259      C1269   1.278       .  A
O1260     Cu1267   2.012       .  S
O1260      C1270   1.276       .  A
O1261     Cu1267   2.008       .  S
O1261      C1271   1.278       .  A
O1262     Cu1267   2.011       .  S
O1262      C1272   1.278       .  A
O1263     Cu1268   2.009       .  S
O1263      C1272   1.277       .  A
O1264     Cu1268   2.004       .  S
O1264      C1271   1.277       .  A
O1265     Cu1268   2.023       .  S
O1265      C1270   1.279       .  A
O1266     Cu1268   2.023       .  S
O1266      C1269   1.279       .  A
Cu1267    Cu1268   2.376       .  S
C1269      C1330   1.482       .  S
C1270      C1326   1.466       .  S
O1273     Cu1281   2.016   1_655  S
O1273      C1779   1.277       .  A
O1274     Cu1281   2.018       .  S
O1274      C1780   1.278       .  A
O1275      C1781   1.278       .  A
O1276     Cu1281   2.007   1_655  S
O1276      C1782   1.278       .  A
O1277     Cu1282   1.999   1_655  S
O1277      C1286   1.276       .  A
O1278      C1285   1.276       .  A
O1279     Cu1282   2.026       .  S
O1279      C1284   1.279       .  A
O1280     Cu1282   2.023   1_655  S
O1280      C1283   1.279   1_545  A
Cu1281    Cu1778   2.377       .  S
Cu1282    Cu1777   2.377   1_545  S
C1283      O1769   1.277       .  A
C1284      O1770   1.278   1_545  A
C1284      C1403   1.480       .  S
C1285      O1771   1.278   1_545  A
C1285      C1312   1.463       .  S
C1286      O1772   1.278   1_545  A
C1286      C1311   1.462       .  S
O1287     Cu1295   2.008       .  S
O1287      C1297   1.278       .  A
O1288      C1298   1.278       .  A
O1290     Cu1295   2.009       .  S
O1290      C1300   1.276       .  A
O1291     Cu1296   2.020       .  S
O1291      C1300   1.278       .  A
O1292     Cu1296   2.018       .  S
O1292      C1299   1.279       .  A
O1293      C1298   1.276       .  A
O1294     Cu1296   2.002       .  S
O1294      C1297   1.277       .  A
Cu1295    Cu1296   2.378       .  S
C1297      C1328   1.464       .  S
C1298      C1327   1.461       .  S
C1299      C1390   1.480       .  S
O1301     Cu1309   2.005       .  S
O1301      C1807   1.276       .  A
O1302     Cu1309   1.995       .  S
O1302      C1808   1.276       .  A
O1303     Cu1309   2.011       .  S
O1303      C1809   1.278       .  A
O1304     Cu1309   2.018       .  S
O1304      C1810   1.278       .  A
O1305     Cu1310   2.010       .  S
O1305      C1314   1.277       .  A
O1306     Cu1310   2.006       .  S
O1306      C1313   1.276       .  A
O1307     Cu1310   2.013       .  S
O1307      C1312   1.278       .  A
O1308     Cu1310   2.000       .  S
O1308      C1311   1.277       .  A
Cu1309    Cu1806   2.371       .  S
Cu1310    Cu1805   2.371   1_545  S
C1311      O1797   1.276   1_545  A
C1312      O1798   1.276   1_545  A
C1313      O1799   1.278   1_545  A
C1313      C1380   1.500       .  S
C1314      O1800   1.278   1_545  A
O1315     Cu1323   2.008       .  S
O1315      C1325   1.277       .  A
O1316     Cu1323   2.011       .  S
O1316      C1326   1.276       .  A
O1317     Cu1323   2.003       .  S
O1317      C1327   1.278       .  A
O1318     Cu1323   2.010       .  S
O1318      C1328   1.278       .  A
O1319     Cu1324   2.000       .  S
O1319      C1328   1.276       .  A
O1320     Cu1324   1.998       .  S
O1320      C1327   1.276       .  A
O1321     Cu1324   2.024       .  S
O1321      C1326   1.279       .  A
O1322     Cu1324   2.021       .  S
O1322      C1325   1.280       .  A
Cu1323    Cu1324   2.376       .  S
C1325      C1370   1.485       .  S
C1329      C1330   1.412       .  A
C1329      C1334   1.411       .  A
C1329     Br1336   1.930       .  S
C1330      C1331   1.412       .  A
C1331      C1332   1.408       .  A
C1331     Br1338   1.932       .  S
C1332      C1333   1.410       .  A
C1332     Br1337   1.931       .  S
C1333      C1334   1.413       .  A
C1334     Br1335   1.932       .  S
C1339      C1836   1.413       .  A
C1339      C1344   1.409       .  A
C1339     Br1346   1.933       .  S
C1340      C1698   1.482       .  S
C1340      C1835   1.413   1_545  A
C1340      C1341   1.412       .  A
C1341      C1342   1.409       .  A
C1341     Br1348   1.933       .  S
C1342      C1343   1.413       .  A
C1342     Br1347   1.934       .  S
C1343      C1840   1.412   1_545  A
C1344      C1839   1.412       .  A
C1344     Br1345   1.931       .  S
C1349      C1350   1.411       .  A
C1349      C1354   1.409       .  A
C1349     Br1356   1.932       .  S
C1351      C1352   1.409       .  A
C1351     Br1358   1.932       .  S
C1352     Br1357   1.931       .  S
C1353      C1354   1.412       .  A
C1354     Br1355   1.932       .  S
C1359      C1360   1.414   1_545  A
C1359      C1364   1.411       .  A
C1359     Br1366   1.934       .  S
C1361      C1362   1.409       .  A
C1361     Br1368   1.933       .  S
C1362     Br1367   1.934       .  S
C1363      C1364   1.413   1_565  A
C1364     Br1365   1.931       .  S
C1369      C1370   1.413       .  A
C1369      C1374   1.410       .  A
C1369     Br1376   1.934       .  S
C1370      C1371   1.414       .  A
C1371      C1372   1.410       .  A
C1371     Br1378   1.934       .  S
C1372      C1373   1.413       .  A
C1372     Br1377   1.934       .  S
C1373      C1374   1.414       .  A
C1374     Br1375   1.935       .  S
C1379      C1876   1.421       .  A
C1379      C1384   1.412       .  A
C1379     Br1386   1.941       .  S
C1380      C1875   1.421       .  A
C1380      C1381   1.420   1_545  A
C1381      C1382   1.410       .  A
C1381     Br1388   1.942       .  S
C1382      C1879   1.421   1_565  A
C1382     Br1387   1.942       .  S
C1383      C1878   1.421       .  A
C1383      C1384   1.420       .  A
C1384     Br1385   1.941       .  S
C1389      C1390   1.412       .  A
C1389      C1394   1.409       .  A
C1389     Br1396   1.931       .  S
C1391      C1392   1.409       .  A
C1391     Br1398   1.931       .  S
C1392     Br1397   1.932       .  S
C1393      C1394   1.412       .  A
C1394     Br1395   1.933       .  S
C1399      C1896   1.409   1_655  A
C1399      C1404   1.410       .  A
C1399     Br1406   1.928       .  S
C1400      C1895   1.409   1_455  A
C1401      C1402   1.411       .  A
C1401     Br1408   1.928       .  S
C1402     Br1407   1.927       .  S
C1403      C1404   1.409   1_455  A
C1404     Br1405   1.926       .  S
C1409      C1410   1.410       .  A
C1409      C1414   1.410       .  A
C1409     Br1416   1.929       .  S
C1410      C1411   1.410       .  A
C1411      C1412   1.408       .  A
C1411     Br1418   1.929       .  S
C1412      C1413   1.408       .  A
C1412     Br1417   1.929       .  S
C1413      C1414   1.410       .  A
C1414     Br1415   1.930       .  S
C1419      C1916   1.415       .  A
C1419      C1424   1.407       .  A
C1419     Br1426   1.937       .  S
C1420      C1915   1.415       .  A
C1420      C1421   1.415       .  A
C1421      C1422   1.409       .  A
C1421     Br1428   1.937       .  S
C1422      C1423   1.417       .  A
C1422     Br1427   1.937       .  S
C1423      C1920   1.414       .  A
C1424      C1919   1.414       .  A
C1424     Br1425   1.934       .  S
C1429      C1430   1.416       .  A
C1429      C1434   1.408       .  A
C1429     Br1436   1.936       .  S
C1431      C1432   1.411       .  A
C1431     Br1438   1.936       .  S
C1432     Br1437   1.936       .  S
C1433      C1434   1.416       .  A
C1434     Br1435   1.937       .  S
C1439      C1444   1.410       .  A
C1439     Br1446   1.930       .  S
C1440      C1937   1.408   1_455  A
C1441      C1936   1.408   1_665  A
C1441      C1442   1.409       .  A
C1441     Br1448   1.929       .  S
C1442      C1939   1.410   1_665  A
C1442     Br1447   1.929       .  S
C1443      C1938   1.410   1_455  A
C1444     Br1445   1.929       .  S
C1449      C1450   1.412       .  A
C1449      C1454   1.409       .  A
C1449     Br1456   1.933       .  S
C1450      C1451   1.412       .  A
C1451      C1452   1.410       .  A
C1451     Br1458   1.931       .  S
C1452      C1453   1.412       .  A
C1452     Br1457   1.931       .  S
C1453      C1454   1.412       .  A
C1454     Br1455   1.933       .  S
C1459      C1956   1.412       .  A
C1459      C1464   1.408       .  A
C1459     Br1466   1.933       .  S
C1460      C1955   1.412       .  A
C1460      C1461   1.412       .  A
C1461      C1462   1.408       .  A
C1461     Br1468   1.931       .  S
C1462      C1463   1.411       .  A
C1462     Br1467   1.931       .  S
C1463      C1960   1.412       .  A
C1464      C1959   1.412       .  A
C1464     Br1465   1.933       .  S
C1469      C1474   1.408       .  A
C1469     Br1476   1.933       .  S
C1470      C1471   1.412       .  A
C1471      C1472   1.409       .  A
C1471     Br1478   1.931       .  S
C1472      C1473   1.412       .  A
C1472     Br1477   1.932       .  S
C1474     Br1475   1.933       .  S
C1479      C1480   1.412   1_545  A
C1479      C1484   1.409       .  A
C1479     Br1486   1.932       .  S
C1481      C1482   1.408       .  A
C1481     Br1488   1.932       .  S
C1482     Br1487   1.933       .  S
C1483      C1484   1.411   1_565  A
C1484     Br1485   1.931       .  S
O1489     Cu1497   2.008       .  S
O1490      C1500   1.276   1_655  A
O1491     Cu1497   2.009       .  S
O1493     Cu1498   2.006       .  S
O1493      C1502   1.277       .  A
O1494      C1501   1.277       .  A
O1495     Cu1498   2.016       .  S
O1496      C1499   1.279       .  A
C1499      C1979   1.480       .  S
C1500      C1557   1.462       .  S
C1501      C1513   1.466       .  S
C1502      C1514   1.466       .  S
O1503     Cu1511   2.008       .  S
O1503      C1513   1.278       .  A
O1504     Cu1511   2.010       .  S
O1504      C1514   1.278       .  A
O1505     Cu1511   2.014       .  S
O1505      C1515   1.277       .  A
O1506     Cu1511   2.014       .  S
O1506      C1516   1.278       .  A
O1507     Cu1512   2.010       .  S
O1508     Cu1512   2.012       .  S
O1509     Cu1512   2.006       .  S
O1510     Cu1512   2.008       .  S
C1516      C1966   1.482       .  S
O1517     Cu1525   2.010   1_565  S
O1517      C1527   1.278       .  A
O1518      C1528   1.278       .  A
O1519     Cu1525   2.006       .  S
O1519      C1529   1.276       .  A
O1520     Cu1525   2.008       .  S
O1520      C1530   1.278       .  A
O1521     Cu1526   2.007       .  S
O1521      C1530   1.278       .  A
O1522     Cu1526   2.006       .  S
O1522      C1529   1.277       .  A
O1523      C1528   1.277       .  A
O1524     Cu1526   2.007   1_565  S
O1524      C1527   1.277       .  A
Cu1525    Cu1526   2.377       .  S
C1527      C1542   1.466       .  S
C1528      C1541   1.466       .  S
C1529      C1585   1.456       .  S
C1530      C1959   1.479       .  S
O1531     Cu1539   2.005       .  S
O1531      C1541   1.277       .  A
O1532     Cu1539   2.006       .  S
O1532      C1542   1.277       .  A
O1533     Cu1539   2.019       .  S
O1533      C1543   1.278       .  A
O1534     Cu1539   2.016       .  S
O1534      C1544   1.279       .  A
O1535     Cu1540   2.010       .  S
O1535      C1544   1.278       .  A
O1536     Cu1540   2.013       .  S
O1536      C1543   1.277       .  A
O1537     Cu1540   2.010       .  S
O1537      C1542   1.278       .  A
O1538     Cu1540   2.011       .  S
O1538      C1541   1.278       .  A
Cu1539    Cu1540   2.376       .  S
C1543      C1597   1.464       .  S
C1544      C1946   1.482       .  S
O1545      C1555   1.277   1_565  A
O1546     Cu1553   2.005       .  S
O1546      C1556   1.278   1_565  A
O1547     Cu1553   2.012   1_455  S
O1547      C1557   1.277       .  A
O1548     Cu1553   2.013       .  S
O1548      C1558   1.278   1_665  A
O1549     Cu1554   2.017   1_455  S
O1550     Cu1554   2.015       .  S
O1551     Cu1554   2.006       .  S
C1555      C1584   1.461       .  S
C1556      C1583   1.464       .  S
C1558      C1936   1.476       .  S
O1559     Cu1567   2.010   1_455  S
O1559      C1569   1.277       .  A
O1560     Cu1567   2.005       .  S
O1561     Cu1567   1.997       .  S
O1561      C1571   1.276       .  A
O1562      C1572   1.277       .  A
O1563     Cu1568   2.000       .  S
O1563      C1572   1.277       .  A
O1564      C1571   1.277       .  A
O1565     Cu1568   2.013       .  S
O1565      C1570   1.278       .  A
O1566     Cu1568   2.017       .  S
C1570      C1926   1.492       .  S
C1571      C1600   1.462       .  S
C1572      C1599   1.464       .  S
O1573     Cu1581   2.000       .  S
O1573      C1583   1.276   1_565  A
O1574     Cu1581   2.005       .  S
O1574      C1584   1.277   1_565  A
O1575     Cu1581   2.010       .  S
O1575      C1585   1.277   1_565  A
O1576     Cu1581   2.007       .  S
O1576      C1586   1.277   1_565  A
O1577     Cu1582   2.000       .  S
O1578     Cu1582   2.002       .  S
O1579     Cu1582   1.998       .  S
O1580     Cu1582   2.010       .  S
C1586      C1916   1.485       .  S
O1587     Cu1595   2.017       .  S
O1587      C1597   1.278       .  A
O1588     Cu1595   2.019       .  S
O1588      C1598   1.278       .  A
O1589     Cu1595   2.007       .  S
O1589      C1599   1.278       .  A
O1590     Cu1595   2.001       .  S
O1590      C1600   1.277       .  A
O1591     Cu1596   2.004       .  S
O1591      C1600   1.277       .  A
O1592     Cu1596   2.003       .  S
O1592      C1599   1.277       .  A
O1593     Cu1596   2.016       .  S
O1593      C1598   1.278       .  A
O1594     Cu1596   2.015       .  S
O1594      C1597   1.277       .  A
Cu1595    Cu1596   2.378       .  S
C1598      C1906   1.477       .  S
O1601     Cu1609   2.020       .  S
O1602     Cu1609   2.023       .  S
O1604     Cu1609   2.005   1_655  S
O1605     Cu1610   2.003   1_655  S
O1605      C1614   1.277   1_565  A
O1606      C1613   1.277   1_565  A
O1607     Cu1610   2.017       .  S
O1607      C1612   1.278   1_565  A
O1608     Cu1610   2.015       .  S
O1608      C1611   1.278   1_565  A
C1611      C1939   1.478       .  S
C1612      C1896   1.479       .  S
C1613      C1641   1.462       .  S
C1614      C1642   1.463       .  S
O1615     Cu1623   2.005       .  S
O1615      C1625   1.277       .  A
O1616     Cu1623   2.007       .  S
O1616      C1626   1.277       .  A
O1617      C1627   1.276       .  A
O1618     Cu1623   2.010       .  S
O1618      C1628   1.278       .  A
O1619     Cu1624   2.002       .  S
O1619      C1628   1.277       .  A
O1620      C1627   1.277       .  A
O1621     Cu1624   2.015       .  S
O1621      C1626   1.279       .  A
O1622     Cu1624   2.015       .  S
O1622      C1625   1.278       .  A
Cu1623    Cu1624   2.373       .  S
C1625      C1929   1.492       .  S
C1626      C1889   1.479       .  S
C1627      C1654   1.460       .  S
C1628      C1653   1.465       .  S
O1629     Cu1637   2.014       .  S
O1630     Cu1637   2.013       .  S
O1631     Cu1637   2.004       .  S
O1632     Cu1637   2.001       .  S
O1633     Cu1638   2.006       .  S
O1633      C1642   1.277   1_565  A
O1634     Cu1638   2.001       .  S
O1634      C1641   1.277   1_565  A
O1635     Cu1638   2.000       .  S
O1635      C1640   1.276   1_565  A
O1636     Cu1638   2.000       .  S
O1636      C1639   1.275   1_565  A
C1639      C1879   1.500       .  S
C1640      C1919   1.486       .  S
O1643     Cu1651   2.005       .  S
O1643      C1653   1.277       .  A
O1644     Cu1651   2.000       .  S
O1644      C1654   1.277       .  A
O1645     Cu1651   2.016       .  S
O1645      C1655   1.278       .  A
O1646     Cu1651   2.015       .  S
O1646      C1656   1.279       .  A
O1647     Cu1652   2.012       .  S
O1647      C1656   1.278       .  A
O1648     Cu1652   2.013       .  S
O1648      C1655   1.278       .  A
O1649     Cu1652   2.000       .  S
O1649      C1654   1.277       .  A
O1650     Cu1652   2.007       .  S
O1650      C1653   1.277       .  A
Cu1651    Cu1652   2.376       .  S
C1655      C1909   1.476       .  S
C1656      C1869   1.485       .  S
O1657     Cu1665   2.012       .  S
O1658     Cu1665   2.012   1_554  S
O1659     Cu1665   2.008       .  S
O1661      C1670   1.278       .  A
O1662     Cu1666   2.006       .  S
O1662      C1669   1.277       .  A
O1663     Cu1666   2.013   1_554  S
O1663      C1668   1.278       .  A
O1664     Cu1666   2.013       .  S
O1664      C1667   1.279       .  A
C1667      C1856   1.485       .  S
C1668      C1976   1.481       .  S
C1669      C1684   1.466       .  S
C1670      C1683   1.467       .  S
O1671     Cu1679   2.012       .  S
O1672     Cu1679   2.010   1_554  S
O1673     Cu1679   2.007       .  S
O1674     Cu1679   2.009       .  S
O1675     Cu1680   2.006       .  S
O1675      C1684   1.277       .  A
O1676     Cu1680   2.010       .  S
O1676      C1683   1.278       .  A
O1677     Cu1680   2.013   1_554  S
O1677      C1682   1.278       .  A
O1678     Cu1680   2.014       .  S
O1678      C1681   1.278       .  A
C1681      C1846   1.480       .  S
C1682      C1969   1.481       .  S
O1685      C1695   1.277       .  A
O1686     Cu1693   2.005       .  S
O1686      C1696   1.277       .  A
O1687     Cu1693   2.007   1_554  S
O1688      C1698   1.278       .  A
O1689     Cu1694   2.014       .  S
O1689      C1698   1.279       .  A
O1690     Cu1694   2.013   1_554  S
O1690      C1697   1.278       .  A
O1691      C1696   1.277       .  A
O1692     Cu1694   2.011   1_565  S
O1692      C1695   1.278       .  A
C1695      C1711   1.467       .  S
C1696      C1712   1.465       .  S
C1697      C1956   1.480       .  S
O1699     Cu1707   2.017       .  S
O1699      C1709   1.279       .  A
O1700     Cu1707   2.019   1_554  S
O1700      C1710   1.279       .  A
O1701     Cu1707   2.008       .  S
O1701      C1711   1.277       .  A
O1702     Cu1707   2.005       .  S
O1702      C1712   1.277       .  A
O1703     Cu1708   2.007       .  S
O1703      C1712   1.278       .  A
O1704     Cu1708   2.011       .  S
O1704      C1711   1.278       .  A
O1705     Cu1708   2.010   1_554  S
O1705      C1710   1.278       .  A
O1706     Cu1708   2.012       .  S
O1706      C1709   1.278       .  A
Cu1707    Cu1708   2.375       .  S
C1709      C1829   1.482       .  S
C1710      C1949   1.483       .  S
O1714     Cu1721   2.006       .  S
O1715     Cu1721   2.011       .  S
O1715      C1725   1.278       .  A
O1716     Cu1721   2.014       .  S
O1717     Cu1722   2.024       .  S
O1717      C1726   1.279       .  A
O1718     Cu1722   2.021       .  S
O1719     Cu1722   2.007       .  S
O1719      C1724   1.277       .  A
O1720      C1723   1.277       .  A
C1725      C1859   1.486       .  S
C1726      C1779   1.467       .  S
O1727     Cu1735   2.008       .  S
O1728     Cu1735   2.009       .  S
O1729     Cu1735   2.015       .  S
O1730     Cu1735   2.014       .  S
O1731     Cu1736   2.013       .  S
O1731      C1740   1.278       .  A
O1732     Cu1736   2.014       .  S
O1732      C1739   1.277       .  A
O1733     Cu1736   2.010       .  S
O1733      C1738   1.278       .  A
O1734     Cu1736   2.006       .  S
O1734      C1737   1.277       .  A
C1739      C1796   1.463       .  S
C1740      C1849   1.480       .  S
O1741     Cu1749   2.013       .  S
O1741      C1751   1.277       .  A
O1742     Cu1749   2.010       .  S
O1742      C1752   1.278       .  A
O1743     Cu1749   2.006       .  S
O1743      C1753   1.277       .  A
O1744      C1754   1.277       .  A
O1745      C1754   1.278       .  A
O1746     Cu1750   2.007       .  S
O1746      C1753   1.278       .  A
O1747     Cu1750   2.015       .  S
O1747      C1752   1.278       .  A
O1748     Cu1750   2.016       .  S
O1748      C1751   1.278       .  A
Cu1749    Cu1750   2.376       .  S
C1751      C1810   1.463       .  S
C1752      C1839   1.483       .  S
C1753      C1767   1.465       .  S
C1754      C1768   1.467       .  S
O1755     Cu1763   2.010       .  S
O1755      C1765   1.278       .  A
O1756     Cu1763   2.012       .  S
O1756      C1766   1.276       .  A
O1757     Cu1763   2.008       .  S
O1757      C1767   1.278       .  A
O1758     Cu1763   2.011       .  S
O1758      C1768   1.278       .  A
O1759     Cu1764   2.009       .  S
O1759      C1768   1.277       .  A
O1760     Cu1764   2.004       .  S
O1760      C1767   1.277       .  A
O1761     Cu1764   2.023       .  S
O1761      C1766   1.279       .  A
O1762     Cu1764   2.023       .  S
O1762      C1765   1.279       .  A
Cu1763    Cu1764   2.376       .  S
C1765      C1826   1.482       .  S
C1766      C1822   1.466       .  S
O1769     Cu1777   2.016   1_655  S
O1770     Cu1777   2.018       .  S
O1772     Cu1777   2.007   1_655  S
O1773     Cu1778   1.999   1_655  S
O1773      C1782   1.276       .  A
O1774      C1781   1.276       .  A
O1775     Cu1778   2.026       .  S
O1775      C1780   1.279       .  A
O1776     Cu1778   2.023   1_655  S
O1776      C1779   1.279       .  A
C1780      C1899   1.480       .  S
C1781      C1808   1.463       .  S
C1782      C1807   1.462       .  S
O1783     Cu1791   2.008       .  S
O1783      C1793   1.278       .  A
O1784      C1794   1.278       .  A
O1786     Cu1791   2.009       .  S
O1786      C1796   1.276       .  A
O1787     Cu1792   2.020       .  S
O1787      C1796   1.278       .  A
O1788     Cu1792   2.018       .  S
O1788      C1795   1.279       .  A
O1789      C1794   1.276       .  A
O1790     Cu1792   2.002       .  S
O1790      C1793   1.277       .  A
Cu1791    Cu1792   2.378       .  S
C1793      C1824   1.464       .  S
C1794      C1823   1.461       .  S
C1795      C1886   1.480       .  S
O1797     Cu1805   2.005       .  S
O1798     Cu1805   1.995       .  S
O1799     Cu1805   2.011       .  S
O1800     Cu1805   2.018       .  S
O1801     Cu1806   2.010       .  S
O1801      C1810   1.277       .  A
O1802     Cu1806   2.006       .  S
O1802      C1809   1.276       .  A
O1803     Cu1806   2.013       .  S
O1803      C1808   1.278       .  A
O1804     Cu1806   2.000       .  S
O1804      C1807   1.277       .  A
C1809      C1876   1.500       .  S
O1811     Cu1819   2.008       .  S
O1811      C1821   1.277       .  A
O1812     Cu1819   2.011       .  S
O1812      C1822   1.276       .  A
O1813     Cu1819   2.003       .  S
O1813      C1823   1.278       .  A
O1814     Cu1819   2.010       .  S
O1814      C1824   1.278       .  A
O1815     Cu1820   2.000       .  S
O1815      C1824   1.276       .  A
O1816     Cu1820   1.998       .  S
O1816      C1823   1.276       .  A
O1817     Cu1820   2.024       .  S
O1817      C1822   1.279       .  A
O1818     Cu1820   2.021       .  S
O1818      C1821   1.280       .  A
Cu1819    Cu1820   2.376       .  S
C1821      C1866   1.485       .  S
C1825      C1826   1.412       .  A
C1825      C1830   1.411       .  A
C1825     Br1832   1.930       .  S
C1826      C1827   1.412       .  A
C1827      C1828   1.408       .  A
C1827     Br1834   1.932       .  S
C1828      C1829   1.410       .  A
C1828     Br1833   1.931       .  S
C1829      C1830   1.413       .  A
C1830     Br1831   1.932       .  S
C1835      C1840   1.409       .  A
C1835     Br1842   1.933       .  S
C1836      C1837   1.412       .  A
C1837      C1838   1.409       .  A
C1837     Br1844   1.933       .  S
C1838      C1839   1.413       .  A
C1838     Br1843   1.934       .  S
C1840     Br1841   1.931       .  S
C1845      C1846   1.411       .  A
C1845      C1850   1.409       .  A
C1845     Br1852   1.932       .  S
C1847      C1848   1.409       .  A
C1847     Br1854   1.932       .  S
C1848     Br1853   1.931       .  S
C1849      C1850   1.412       .  A
C1850     Br1851   1.932       .  S
C1855      C1856   1.414       .  A
C1855      C1860   1.411       .  A
C1855     Br1862   1.934       .  S
C1857      C1858   1.409       .  A
C1857     Br1864   1.933       .  S
C1858     Br1863   1.934       .  S
C1859      C1860   1.413       .  A
C1860     Br1861   1.931       .  S
C1865      C1866   1.413       .  A
C1865      C1870   1.410       .  A
C1865     Br1872   1.934       .  S
C1866      C1867   1.414       .  A
C1867      C1868   1.410       .  A
C1867     Br1874   1.934       .  S
C1868      C1869   1.413       .  A
C1868     Br1873   1.934       .  S
C1869      C1870   1.414       .  A
C1870     Br1871   1.935       .  S
C1875      C1880   1.412       .  A
C1875     Br1882   1.941       .  S
C1876      C1877   1.420       .  A
C1877      C1878   1.410       .  A
C1877     Br1884   1.942       .  S
C1878     Br1883   1.942       .  S
C1879      C1880   1.420       .  A
C1880     Br1881   1.941       .  S
C1885      C1886   1.412       .  A
C1885      C1890   1.409       .  A
C1885     Br1892   1.931       .  S
C1887      C1888   1.409       .  A
C1887     Br1894   1.931       .  S
C1888     Br1893   1.932       .  S
C1889      C1890   1.412       .  A
C1890     Br1891   1.933       .  S
C1895      C1900   1.410       .  A
C1895     Br1902   1.928       .  S
C1897      C1898   1.411       .  A
C1897     Br1904   1.928   1_545  S
C1898     Br1903   1.927   1_545  S
C1899      C1900   1.409   1_455  A
C1900     Br1901   1.926       .  S
C1905      C1906   1.410       .  A
C1905      C1910   1.410       .  A
C1905     Br1912   1.929       .  S
C1906      C1907   1.410       .  A
C1907      C1908   1.408       .  A
C1907     Br1914   1.929       .  S
C1908      C1909   1.408       .  A
C1908     Br1913   1.929       .  S
C1909      C1910   1.410       .  A
C1910     Br1911   1.930       .  S
C1915      C1920   1.407       .  A
C1915     Br1922   1.937       .  S
C1916      C1917   1.415   1_545  A
C1917      C1918   1.409       .  A
C1917     Br1924   1.937       .  S
C1918      C1919   1.417   1_565  A
C1918     Br1923   1.937       .  S
C1920     Br1921   1.934       .  S
C1925      C1926   1.416       .  A
C1925      C1930   1.408       .  A
C1925     Br1932   1.936       .  S
C1927      C1928   1.411       .  A
C1927     Br1934   1.936       .  S
C1928     Br1933   1.936       .  S
C1929      C1930   1.416       .  A
C1930     Br1931   1.937       .  S
C1935      C1940   1.410       .  A
C1935     Br1942   1.930       .  S
C1937      C1938   1.409       .  A
C1937     Br1944   1.929       .  S
C1938     Br1943   1.929       .  S
C1940     Br1941   1.929       .  S
C1945      C1946   1.412       .  A
C1945      C1950   1.409       .  A
C1945     Br1952   1.933       .  S
C1946      C1947   1.412       .  A
C1947      C1948   1.410       .  A
C1947     Br1954   1.931       .  S
C1948      C1949   1.412       .  A
C1948     Br1953   1.931       .  S
C1949      C1950   1.412       .  A
C1950     Br1951   1.933       .  S
C1955      C1960   1.408       .  A
C1955     Br1962   1.933       .  S
C1956      C1957   1.412   1_545  A
C1957      C1958   1.408       .  A
C1957     Br1964   1.931       .  S
C1958      C1959   1.411   1_565  A
C1958     Br1963   1.931       .  S
C1960     Br1961   1.933       .  S
C1965      C1970   1.408       .  A
C1965     Br1972   1.933       .  S
C1966      C1967   1.412       .  A
C1967      C1968   1.409       .  A
C1967     Br1974   1.931       .  S
C1968      C1969   1.412       .  A
C1968     Br1973   1.932       .  S
C1970     Br1971   1.933       .  S
C1975      C1976   1.412       .  A
C1975      C1980   1.409       .  A
C1975     Br1982   1.932       .  S
C1977      C1978   1.408       .  A
C1977     Br1984   1.932       .  S
C1978     Br1983   1.933       .  S
C1979      C1980   1.411       .  A
C1980     Br1981   1.931       .  S
