geometry optimzed in LAMMPS
_audit_creation_date              2020-11-30 
_audit_creation_method            'lammps2cif' 
_symmetry_space_group_name_H-M    'P1' 
_symmetry_Int_Tables_number       1 
_symmetry_cell_setting            triclinic 
loop_ 
_symmetry_equiv_pos_as_xyz 
  x,y,z 
_cell_length_a                    30.31708366 
_cell_length_b                    30.30203527269303 
_cell_length_c                    60.62298103304879 
_cell_angle_alpha                 89.98445844530838 
_cell_angle_beta                  89.93451965900915 
_cell_angle_gamma                 90.13032025301652 
loop_ 
_atom_site_label 
_atom_site_type_symbol 
_atom_site_fract_x 
_atom_site_fract_y 
_atom_site_fract_z 
_atom_site_charge 
O1          O  0.95318276  0.00436436  0.09335377    -0.71700
O2          O  0.94927670  0.99970386  0.15608581    -0.71900
O3          O  0.95061830  0.06447763  0.12593591    -0.71800
O4          O  0.95192128  0.93902883  0.12351515    -0.71800
O5          O  0.02327816  0.94021288  0.12585185    -0.71700
O6          O  0.02221066  0.06490618  0.12555015    -0.71700
O7          O  0.02073916  0.00288413  0.15695784    -0.71700
O8          O  0.02472269  0.00207580  0.09452857    -0.71900
V9          V  0.95254321  0.00184491  0.12473390     1.35200
V10         V  0.02128773  0.00252391  0.12572013     1.35200
C11         C  0.98973847  0.00338840  0.08326218     0.77600
C12         C  0.98447953  0.00132777  0.16725431     0.77600
C13         C  0.98636776  0.08606416  0.12596591     0.77500
C14         C  0.98803100  0.91816405  0.12435378     0.77400
O15         O  0.03280862  0.56454748  0.12253486    -0.71700
O16         O  0.03296121  0.43921937  0.12572741    -0.71900
O17         O  0.03197689  0.49873524  0.09292237    -0.71800
O18         O  0.03428558  0.50452993  0.15531437    -0.71800
O19         O  0.96292684  0.49928531  0.15613341    -0.71700
O20         O  0.96057390  0.50323520  0.09344743    -0.71700
O21         O  0.96141925  0.43930733  0.12379789    -0.71700
O22         O  0.96143642  0.56401595  0.12599988    -0.71900
V23         V  0.03168396  0.50184005  0.12412384     1.35200
V24         V  0.96293022  0.50159580  0.12480762     1.35200
C25         C  0.99697943  0.58554766  0.12433815     0.77600
C26         C  0.99703072  0.41796333  0.12501451     0.77600
C27         C  0.99596842  0.50009497  0.08246146     0.77500
C28         C  0.99915119  0.50117188  0.16643965     0.77400
O29         O  0.46548836  0.93812453  0.12439164    -0.71700
O30         O  0.46037687  0.06284641  0.12505661    -0.71900
O31         O  0.46364854  0.00080995  0.09344990    -0.71800
O32         O  0.46306505  0.99974455  0.15618587    -0.71800
O33         O  0.53458450  0.00177611  0.15614908    -0.71700
O34         O  0.53511373  0.00520011  0.09369675    -0.71700
O35         O  0.53191845  0.06618143  0.12600578    -0.71700
O36         O  0.53718689  0.94080307  0.12438001    -0.71900
V37         V  0.46454191  0.00049603  0.12478808     1.35200
V38         V  0.53332420  0.00346915  0.12499346     1.35200
C39         C  0.50200985  0.91829667  0.12431505     0.77600
C40         C  0.49512094  0.08582224  0.12589136     0.77600
C41         C  0.49957907  0.00306246  0.08285665     0.77500
C42         C  0.49890555  0.00012347  0.16688850     0.77400
O43         O  0.52586487  0.56430981  0.12570021    -0.71700
O44         O  0.52397060  0.43916289  0.12568328    -0.71900
O45         O  0.52302944  0.50163891  0.09452886    -0.71800
O46         O  0.52737280  0.50129278  0.15679363    -0.71800
O47         O  0.45592842  0.50142244  0.15836308    -0.71700
O48         O  0.45149053  0.50363557  0.09550338    -0.71700
O49         O  0.45242689  0.44005573  0.12669496    -0.71700
O50         O  0.45440286  0.56530553  0.12731410    -0.71900
V51         V  0.52360723  0.50171271  0.12569247     1.35200
V52         V  0.45487776  0.50264850  0.12693218     1.35200
C53         C  0.49045446  0.58627687  0.12645271     0.77600
C54         C  0.48788316  0.41820339  0.12641561     0.77600
C55         C  0.48678436  0.50264683  0.08431123     0.77500
C56         C  0.49266687  0.50021931  0.16828900     0.77400
O57         O  0.03217396  0.99320020  0.84398991    -0.71700
O58         O  0.03080861  0.99198469  0.90654089    -0.71900
O59         O  0.03089467  0.92966542  0.87501256    -0.71800
O60         O  0.03203223  0.05476801  0.87558121    -0.71800
O61         O  0.96049511  0.05517498  0.87343884    -0.71700
O62         O  0.95934128  0.93014024  0.87596577    -0.71700
O63         O  0.95927846  0.99501258  0.90611725    -0.71700
O64         O  0.96057644  0.99017986  0.84357746    -0.71900
V65         V  0.03010276  0.99229449  0.87526163     1.35200
V66         V  0.96128893  0.99261400  0.87482860     1.35200
C67         C  0.99661829  0.99191437  0.83313077     0.77600
C68         C  0.99480949  0.99406026  0.91702304     0.77600
C69         C  0.99490079  0.90848841  0.87551801     0.77500
C70         C  0.99648601  0.07625283  0.87424533     0.77400
O71         O  0.03414980  0.55514845  0.87345364    -0.71700
O72         O  0.03510653  0.43000042  0.87465875    -0.71900
O73         O  0.03370968  0.49150638  0.84292828    -0.71800
O74         O  0.03546336  0.49421772  0.90553363    -0.71800
O75         O  0.96394640  0.48855557  0.90601255    -0.71700
O76         O  0.96221304  0.49472560  0.84358474    -0.71700
O77         O  0.96357541  0.42944233  0.87325532    -0.71700
O78         O  0.96271812  0.55436381  0.87637764    -0.71900
V79         V  0.03327992  0.49263983  0.87420505     1.35200
V80         V  0.96448179  0.49183957  0.87479676     1.35200
C81         C  0.99827106  0.57606379  0.87491986     0.77600
C82         C  0.99947386  0.40832942  0.87354800     0.77600
C83         C  0.99758894  0.49322956  0.83256053     0.77500
C84         C  0.99993114  0.49129665  0.91637647     0.77400
O85         O  0.46146731  0.94551291  0.87394207    -0.71700
O86         O  0.46791043  0.07062369  0.87423515    -0.71900
O87         O  0.46533400  0.00875972  0.84278802    -0.71800
O88         O  0.46409781  0.00779944  0.90545858    -0.71800
O89         O  0.53537049  0.00121840  0.90559060    -0.71700
O90         O  0.53689489  0.00841049  0.84311104    -0.71700
O91         O  0.53928371  0.06715300  0.87587597    -0.71700
O92         O  0.53293485  0.94237738  0.87260708    -0.71900
V93         V  0.46604673  0.00807174  0.87411538     1.35200
V94         V  0.53473158  0.00480490  0.87432798     1.35200
C95         C  0.49619533  0.92255936  0.87300983     0.77600
C96         C  0.50471163  0.09030769  0.87501568     0.77600
C97         C  0.50135896  0.00986418  0.83225250     0.77500
C98         C  0.49956533  0.00370295  0.91623053     0.77400
O99         O  0.46377337  0.50310676  0.90662215    -0.71700
O100        O  0.46726938  0.50622223  0.84411554    -0.71900
O101        O  0.46833987  0.44230480  0.87437938    -0.71800
O102        O  0.46291579  0.56734021  0.87586090    -0.71800
O103        O  0.53450490  0.57042790  0.87608017    -0.71700
O104        O  0.53980162  0.44544438  0.87677576    -0.71700
O105        O  0.53876524  0.50730528  0.84499806    -0.71700
O106        O  0.53514127  0.50873234  0.90771627    -0.71900
V107        V  0.46696372  0.50483420  0.87533571     1.35200
V108        V  0.53569000  0.50791500  0.87636937     1.35200
C109        C  0.49877774  0.50587056  0.91787299     0.77600
C110        C  0.50350277  0.50663868  0.83381547     0.77600
C111        C  0.50501664  0.42264446  0.87519777     0.77500
C112        C  0.49785855  0.59019184  0.87581145     0.77400
O113        O  0.00879285  0.03806546  0.40656340    -0.71700
O114        O  0.00231044  0.03815207  0.34403065    -0.71900
O115        O  0.94319551  0.03844333  0.37696654    -0.71800
O116        O  0.06834256  0.03777284  0.37380790    -0.71800
O117        O  0.06769594  0.96608042  0.37332485    -0.71700
O118        O  0.94285047  0.96679155  0.37696225    -0.71700
O119        O  0.00153837  0.96658627  0.34410498    -0.71700
O120        O  0.00874075  0.96650020  0.40663110    -0.71900
V121        V  0.00572239  0.03672953  0.37533688     1.35200
V122        V  0.00526308  0.96788988  0.37530641     1.35200
C123        C  0.00961530  0.00235525  0.41733218     0.77600
C124        C  0.00027612  0.00231623  0.33336197     0.77600
C125        C  0.92167754  0.00265783  0.37723995     0.77500
C126        C  0.08929679  0.00177816  0.37292514     0.77400
O127        O  0.00304725  0.45771913  0.40583123    -0.71700
O128        O  0.00288184  0.45778952  0.34338071    -0.71900
O129        O  0.06556824  0.45515598  0.37441427    -0.71800
O130        O  0.94055309  0.46058455  0.37483713    -0.71800
O131        O  0.94380577  0.53211233  0.37316658    -0.71700
O132        O  0.06860897  0.52671918  0.37611629    -0.71700
O133        O  0.00914024  0.52910267  0.34327909    -0.71700
O134        O  0.00366886  0.52939324  0.40590681    -0.71900
V135        V  0.00308815  0.45920338  0.37460559     1.35200
V136        V  0.00621475  0.52798613  0.37460032     1.35200
C137        C  0.00289310  0.49346820  0.41653813     0.77600
C138        C  0.00645788  0.49330245  0.33260342     0.77600
C139        C  0.08835217  0.49006764  0.37552999     0.77500
C140        C  0.92085580  0.49726724  0.37387289     0.77400
O141        O  0.44382014  0.95775879  0.37246392    -0.71700
O142        O  0.56890391  0.96073550  0.37728714    -0.71900
O143        O  0.50178136  0.95943594  0.40605978    -0.71800
O144        O  0.51117556  0.95877493  0.34365386    -0.71800
O145        O  0.50602453  0.03022851  0.34338312    -0.71700
O146        O  0.50411448  0.03106203  0.40581123    -0.71700
O147        O  0.56738611  0.03223396  0.37511879    -0.71700
O148        O  0.44254632  0.02927546  0.37386331    -0.71900
V149        V  0.50637771  0.96049602  0.37486199     1.35200
V150        V  0.50500708  0.02929832  0.37457949     1.35200
C151        C  0.42177081  0.99317684  0.37237551     0.77600
C152        C  0.58948072  0.99710017  0.37678662     0.77600
C153        C  0.50260783  0.99539088  0.41660147     0.77500
C154        C  0.50929879  0.99440795  0.33285243     0.77400
O155        O  0.44299231  0.45848863  0.37675212    -0.71700
O156        O  0.56799684  0.46223201  0.37620135    -0.71900
O157        O  0.50590568  0.46181243  0.40780381    -0.71800
O158        O  0.50548377  0.45884921  0.34522305    -0.71800
O159        O  0.50548122  0.53053928  0.34452779    -0.71700
O160        O  0.50073778  0.53336322  0.40694693    -0.71700
O161        O  0.56623233  0.53383810  0.37675598    -0.71700
O162        O  0.44120447  0.52992807  0.37468191    -0.71900
V163        V  0.50556734  0.46171320  0.37650523     1.35200
V164        V  0.50359717  0.53053780  0.37575051     1.35200
C165        C  0.42067642  0.49364350  0.37562778     0.77600
C166        C  0.58849481  0.49858344  0.37627323     0.77600
C167        C  0.50225205  0.49803283  0.41795084     0.77500
C168        C  0.50531299  0.49429198  0.33423256     0.77400
O169        O  0.00860909  0.97198730  0.65680251    -0.71700
O170        O  0.00817866  0.97060881  0.59447099    -0.71900
O171        O  0.07116349  0.97076855  0.62547451    -0.71800
O172        O  0.94590655  0.97245006  0.62573173    -0.71800
O173        O  0.94746647  0.04376945  0.62281234    -0.71700
O174        O  0.07192973  0.04224534  0.62775898    -0.71700
O175        O  0.01501162  0.04200524  0.59397985    -0.71700
O176        O  0.00467577  0.04344584  0.65658339    -0.71900
V177        V  0.00853604  0.97280640  0.62563021     1.35200
V178        V  0.00972069  0.04156601  0.62528968     1.35200
C179        C  0.00566415  0.00773581  0.66741085     0.77600
C180        C  0.01227424  0.00588298  0.58358785     0.77600
C181        C  0.09292766  0.00633958  0.62683011     0.77500
C182        C  0.92524844  0.00850055  0.62388704     0.77400
O183        O  0.06415870  0.53040389  0.62542817    -0.71700
O184        O  0.93909591  0.53042793  0.62290388    -0.71900
O185        O  0.99931701  0.53176627  0.65540451    -0.71800
O186        O  0.00370923  0.52899995  0.59291977    -0.71800
O187        O  0.00268510  0.45734418  0.59364452    -0.71700
O188        O  0.00014118  0.46017206  0.65615598    -0.71700
O189        O  0.93892027  0.45879354  0.62449055    -0.71700
O190        O  0.06394850  0.45872550  0.62542436    -0.71900
V191        V  0.00160878  0.52901697  0.62416706     1.35200
V192        V  0.00143904  0.46015281  0.62490496     1.35200
C193        C  0.08537378  0.49453796  0.62575368     0.77600
C194        C  0.91771766  0.49459682  0.62352384     0.77600
C195        C  0.99914153  0.49641309  0.66647136     0.77500
C196        C  0.00349519  0.49273247  0.58261631     0.77400
O197        O  0.44638936  0.97605342  0.62650322    -0.71700
O198        O  0.57131515  0.97515435  0.62390158    -0.71900
O199        O  0.51108926  0.97920974  0.65643216    -0.71800
O200        O  0.50662682  0.97195867  0.59412978    -0.71800
O201        O  0.50932389  0.04347119  0.59207769    -0.71700
O202        O  0.50908162  0.05068554  0.65457671    -0.71700
O203        O  0.57186630  0.04688146  0.62348284    -0.71700
O204        O  0.44677323  0.04738584  0.62311632    -0.71900
V205        V  0.50886826  0.97698815  0.62523556     1.35200
V206        V  0.50928932  0.04574895  0.62334405     1.35200
C207        C  0.42523215  0.01181120  0.62489166     0.77600
C208        C  0.59283291  0.01088739  0.62337516     0.77600
C209        C  0.51026539  0.01606756  0.66620172     0.77500
C210        C  0.50760008  0.00647187  0.58246266     0.77400
O211        O  0.49660198  0.46075961  0.59461960    -0.71700
O212        O  0.50497489  0.46166323  0.65714593    -0.71900
O213        O  0.43831565  0.46112099  0.62798767    -0.71800
O214        O  0.56336465  0.46129379  0.62376355    -0.71800
O215        O  0.56330346  0.53285028  0.62420559    -0.71700
O216        O  0.43848319  0.53274009  0.62672096    -0.71700
O217        O  0.50360639  0.53321452  0.65673280    -0.71700
O218        O  0.49809975  0.53231149  0.59428948    -0.71900
V219        V  0.50082777  0.46255120  0.62586292     1.35200
V220        V  0.50088328  0.53135992  0.62551721     1.35200
C221        C  0.49595341  0.49638945  0.58374849     0.77600
C222        C  0.50561432  0.49773004  0.66764976     0.77600
C223        C  0.41707125  0.49698234  0.62768010     0.77500
C224        C  0.58477331  0.49719103  0.62352519     0.77400
C225        C  0.79879182  0.46404636  0.63497858    -0.27500
C226        C  0.77605636  0.49545800  0.62231504     0.02100
C227        C  0.80051298  0.52680080  0.61011246     0.30200
C228        C  0.84662685  0.52662361  0.61092307    -0.19300
C229        C  0.86914361  0.49460768  0.62321865    -0.28700
C230        C  0.84487624  0.46309739  0.63526573     0.44200
C231        C  0.72701435  0.49565100  0.62223816     0.05400
O232        O  0.77975275  0.55742044  0.59711119    -0.57200
H233        H  0.86487271  0.55096704  0.60148751     0.18300
O234        O  0.86584286  0.43171065  0.64772196    -0.63900
H235        H  0.78080320  0.44043101  0.64495157     0.16800
C236        C  0.70260469  0.45650007  0.61905900     0.29000
C237        C  0.65642608  0.45758389  0.61936933    -0.24800
C238        C  0.63366690  0.49736683  0.62272352    -0.24100
C239        C  0.65819181  0.53662578  0.62558955     0.40500
C240        C  0.70428891  0.53537908  0.62564528    -0.26600
O241        O  0.72356234  0.41732917  0.61475479    -0.58500
H242        H  0.63843736  0.42706735  0.61685629     0.16100
O243        O  0.63762974  0.57634412  0.62891413    -0.59900
H244        H  0.72235068  0.56570016  0.62857240     0.14600
H245        H  0.87135694  0.44595215  0.66216750     0.46400
H246        H  0.71903670  0.39892879  0.62812046     0.41800
H247        H  0.63557109  0.58996403  0.61407401     0.45300
H248        H  0.77414390  0.54217240  0.58291954     0.36700
C249        C  0.29820769  0.53084836  0.61874250    -0.27500
C250        C  0.27551323  0.49627787  0.62914741     0.02100
C251        C  0.29948454  0.46206685  0.63922625     0.30200
C252        C  0.34561742  0.46248301  0.63857434    -0.19300
C253        C  0.36842062  0.49715819  0.62821255    -0.28700
C254        C  0.34428606  0.53146850  0.61818328     0.44200
C255        C  0.22681102  0.49562067  0.62879094     0.05400
O256        O  0.27808920  0.42822761  0.64983020    -0.57200
H257        H  0.36360338  0.43592640  0.64642953     0.18300
O258        O  0.36532068  0.56524485  0.60733942    -0.63900
H259        H  0.28008002  0.55702369  0.61065002     0.16800
C260        C  0.20227139  0.53025232  0.63813651     0.29000
C261        C  0.15617149  0.52955290  0.63702611    -0.24800
C262        C  0.13399514  0.49454953  0.62663455    -0.24100
C263        C  0.15869505  0.45994651  0.61722955     0.40500
C264        C  0.20474353  0.46061966  0.61842212    -0.26600
O265        O  0.22306780  0.56402693  0.64906484    -0.58500
H266        H  0.13771234  0.55618308  0.64455291     0.16100
O267        O  0.13826939  0.42574843  0.60646360    -0.59900
H268        H  0.22337499  0.43409679  0.61090341     0.14600
H269        H  0.36953151  0.55448805  0.59204068     0.46400
H270        H  0.22317834  0.58918266  0.63857937     0.41800
H271        H  0.13333963  0.43657407  0.59122934     0.45300
H272        H  0.27259937  0.43924070  0.66499027     0.36700
C273        C  0.71046553  0.98013509  0.60954041    -0.27500
C274        C  0.73423386  0.00982840  0.62278909     0.02100
C275        C  0.71100213  0.04033416  0.63595921     0.30200
C276        C  0.66489969  0.04094636  0.63564477    -0.19300
C277        C  0.64129760  0.01060997  0.62278494    -0.28700
C278        C  0.66434078  0.98017987  0.60958526     0.44200
C279        C  0.78313835  0.00902559  0.62266247     0.05400
O280        O  0.73301725  0.06922389  0.64946839    -0.57200
H281        H  0.64750451  0.06442856  0.64593311     0.18300
O282        O  0.64210120  0.95093655  0.59635645    -0.63900
H283        H  0.72770733  0.95713513  0.59893935     0.16800
C284        C  0.80649779  0.96955043  0.62623429     0.29000
C285        C  0.85265988  0.96989113  0.62646341    -0.24800
C286        C  0.87638411  0.00925670  0.62316554    -0.24100
C287        C  0.85282958  0.04875228  0.61950165     0.40500
C288        C  0.80672385  0.04825681  0.61907272    -0.26600
O289        O  0.78448158  0.93088163  0.63055831    -0.58500
H290        H  0.86985446  0.93919064  0.62950906     0.16100
O291        O  0.87435390  0.08800937  0.61603155    -0.59900
H292        H  0.78927867  0.07878276  0.61592523     0.14600
H293        H  0.63702739  0.96697813  0.58234236     0.46400
H294        H  0.78782659  0.91274828  0.61703673     0.41800
H295        H  0.87564172  0.10237568  0.63071599     0.45300
H296        H  0.73786779  0.05282366  0.66340425     0.36700
C297        C  0.30595994  0.04533215  0.61633379    -0.27500
C298        C  0.28355788  0.01018018  0.62649250     0.02100
C299        C  0.30804692  0.97564707  0.63601875     0.30200
C300        C  0.35408163  0.97641881  0.63514097    -0.19300
C301        C  0.37655310  0.01179575  0.62522167    -0.28700
C302        C  0.35206262  0.04644383  0.61572101     0.44200
C303        C  0.23471470  0.00938929  0.62678275     0.05400
O304        O  0.28730706  0.94118022  0.64644660    -0.57200
H305        H  0.37226876  0.94956271  0.64261668     0.18300
O306        O  0.37272383  0.08123142  0.60551911    -0.63900
H307        H  0.28764635  0.07173867  0.60855451     0.16800
C308        C  0.21035898  0.04568708  0.63458701     0.29000
C309        C  0.16424473  0.04401157  0.63469639    -0.24800
C310        C  0.14166715  0.00644631  0.62707577    -0.24100
C311        C  0.16613991  0.97016392  0.61924340     0.40500
C312        C  0.21221022  0.97190432  0.61910764    -0.26600
O313        O  0.23137300  0.08215256  0.64298014    -0.58500
H314        H  0.14613863  0.07216712  0.64093493     0.16100
O315        O  0.14550154  0.93302168  0.61141972    -0.59900
H316        H  0.23046747  0.94397958  0.61272294     0.14600
H317        H  0.37642099  0.07195243  0.58994447     0.46400
H318        H  0.22740593  0.10565289  0.63174640     0.41800
H319        H  0.14127793  0.93843124  0.59542259     0.45300
H320        H  0.28266206  0.95131171  0.66182230     0.36700
C321        C  0.46145670  0.51949175  0.47582354    -0.27500
C322        C  0.49471716  0.49941036  0.48839722     0.02100
C323        C  0.53065876  0.47939625  0.47757000     0.30200
C324        C  0.53245679  0.47867668  0.45454969    -0.19300
C325        C  0.49945152  0.49897984  0.44206880    -0.28700
C326        C  0.46378562  0.51955617  0.45276375     0.44200
C327        C  0.49176795  0.49881884  0.51276519     0.05400
O328        O  0.56443625  0.46085059  0.48938004    -0.57200
H329        H  0.56014335  0.46299432  0.44641330     0.18300
O330        O  0.43064973  0.53892381  0.44080917    -0.63900
H331        H  0.43336101  0.53455186  0.48388396     0.16800
C332        C  0.48797999  0.53812585  0.52494876     0.29000
C333        C  0.48887329  0.53675801  0.54802353    -0.24800
C334        C  0.49301040  0.49641617  0.55933624    -0.24100
C335        C  0.49504246  0.45693377  0.54701924     0.40500
C336        C  0.49453454  0.45844044  0.52397896    -0.26600
O337        O  0.48593021  0.57818735  0.51445534    -0.58500
H338        H  0.48694622  0.56754922  0.55704605     0.16100
O339        O  0.49909305  0.41674322  0.55721224    -0.59900
H340        H  0.49684525  0.42786933  0.51478112     0.14600
H341        H  0.40942527  0.51483028  0.43763100     0.46400
H342        H  0.45446780  0.58708193  0.51525809     0.41800
H343        H  0.46852140  0.40556773  0.55881753     0.45300
H344        H  0.58595755  0.48509933  0.49168711     0.36700
C345        C  0.52104345  0.96521230  0.52381659    -0.27500
C346        C  0.50492770  0.00122710  0.51174008     0.02100
C347        C  0.48854399  0.03832766  0.52305777     0.30200
C348        C  0.48971969  0.03952500  0.54610744    -0.19300
C349        C  0.50650331  0.00384360  0.55819404    -0.28700
C350        C  0.52186454  0.96624883  0.54686710     0.44200
C351        C  0.50502141  0.99947867  0.48735583     0.05400
O352        O  0.46930134  0.07248225  0.51173899    -0.57200
H353        H  0.47677309  0.06823201  0.55455568     0.18300
O354        O  0.53818275  0.93054948  0.55810542    -0.63900
H355        H  0.53357266  0.93637827  0.51531908     0.16800
C356        C  0.52456262  0.03338192  0.47478466     0.29000
C357        C  0.52266453  0.03193325  0.45179511    -0.24800
C358        C  0.50306139  0.99602868  0.44091791    -0.24100
C359        C  0.48535211  0.96105238  0.45347308     0.40500
C360        C  0.48593784  0.96324462  0.47652310    -0.26600
O361        O  0.54633597  0.06767615  0.48478432    -0.58500
H362        H  0.53758084  0.05854080  0.44243093     0.16100
O363        O  0.46599829  0.92538663  0.44343149    -0.59900
H364        H  0.47112163  0.93671165  0.48597823     0.14600
H365        H  0.57041026  0.93559018  0.55896909     0.46400
H366        H  0.57668337  0.05670095  0.48739468     0.41800
H367        H  0.48907685  0.90224827  0.44320195     0.45300
H368        H  0.48843138  0.09854998  0.51436296     0.36700
C369        C  0.02010052  0.45693012  0.52320446    -0.27500
C370        C  0.00243922  0.49309632  0.51178203     0.02100
C371        C  0.98425451  0.52844754  0.52375338     0.30200
C372        C  0.98511517  0.52788082  0.54681573    -0.19300
C373        C  0.00337536  0.49207939  0.55828299    -0.28700
C374        C  0.02065924  0.45619734  0.54628427     0.44200
C375        C  0.00279469  0.49338151  0.48737678     0.05400
O376        O  0.96358702  0.56252137  0.51302735    -0.57200
H377        H  0.97067591  0.55524207  0.55575874     0.18300
O378        O  0.03858056  0.42050277  0.55689089    -0.63900
H379        H  0.03398369  0.42939829  0.51417166     0.16800
C380        C  0.02243969  0.52830830  0.47554633     0.29000
C381        C  0.02147889  0.52837087  0.45249095    -0.24800
C382        C  0.00225773  0.49321055  0.44087314    -0.24100
C383        C  0.98331221  0.45785075  0.45272676     0.40500
C384        C  0.98370253  0.45815098  0.47579048    -0.26600
O385        O  0.04341555  0.56210906  0.48635408    -0.58500
H386        H  0.03678765  0.55549123  0.44366971     0.16100
O387        O  0.96385261  0.42307305  0.44197571    -0.59900
H388        H  0.96859614  0.43100615  0.48468217     0.14600
H389        H  0.07009903  0.42809328  0.55902963     0.46400
H390        H  0.07394468  0.55151586  0.48881244     0.41800
H391        H  0.93315303  0.43262287  0.43909950     0.45300
H392        H  0.98206171  0.58896165  0.51577681     0.36700
C393        C  0.70737814  0.46483281  0.36687133    -0.27500
C394        C  0.73034771  0.50159166  0.37498597     0.02100
C395        C  0.70644372  0.53800345  0.38304485     0.30200
C396        C  0.66023021  0.53696681  0.38316083    -0.19300
C397        C  0.63724978  0.49963371  0.37555535    -0.28700
C398        C  0.66134346  0.46358870  0.36711447     0.44200
C399        C  0.77920175  0.50110722  0.37507666     0.05400
O400        O  0.72792856  0.57440789  0.39116435    -0.57200
H401        H  0.64238083  0.56508287  0.38962030     0.18300
O402        O  0.64032073  0.42705200  0.35883264    -0.63900
H403        H  0.72527246  0.43697277  0.36016810     0.16800
C404        C  0.80230131  0.46635955  0.38524628     0.29000
C405        C  0.84838820  0.46552065  0.38460695    -0.24800
C406        C  0.87221080  0.49911013  0.37397562    -0.24100
C407        C  0.84911732  0.53394499  0.36379867     0.40500
C408        C  0.80294592  0.53476115  0.36442391    -0.26600
O409        O  0.78008477  0.43403879  0.39661464    -0.58500
H410        H  0.86556395  0.43879200  0.39277246     0.16100
O411        O  0.87122811  0.56692816  0.35288735    -0.59900
H412        H  0.78559040  0.56135802  0.35625385     0.14600
H413        H  0.63432963  0.43412447  0.34315744     0.46400
H414        H  0.78181425  0.40734178  0.38717929     0.41800
H415        H  0.87557474  0.55567107  0.33768000     0.45300
H416        H  0.73183509  0.56847905  0.40712996     0.36700
C417        C  0.30065457  0.52846209  0.37181840    -0.27500
C418        C  0.27871116  0.48886794  0.37674195     0.02100
C419        C  0.30370217  0.45060406  0.38086674     0.30200
C420        C  0.34980205  0.45246394  0.38012966    -0.19300
C421        C  0.37183832  0.49235790  0.37564583    -0.28700
C422        C  0.34666793  0.53062057  0.37152283     0.44200
C423        C  0.22982039  0.48804882  0.37725644     0.05400
O424        O  0.28346352  0.41132569  0.38588019    -0.57200
H425        H  0.36831697  0.42265028  0.38342480     0.18300
O426        O  0.36651657  0.57019001  0.36670138    -0.63900
H427        H  0.28201154  0.55796431  0.36805041     0.16800
C428        C  0.20598782  0.51973751  0.38939076     0.29000
C429        C  0.15988221  0.51990417  0.38868652    -0.24800
C430        C  0.13685303  0.48838955  0.37625304    -0.24100
C431        C  0.16055963  0.45617003  0.36447079     0.40500
C432        C  0.20668915  0.45632996  0.36492730    -0.26600
O433        O  0.22748533  0.54955516  0.40263372    -0.60100
H434        H  0.14205349  0.54446265  0.39812508     0.16100
O435        O  0.13904781  0.42508151  0.35201578    -0.59900
H436        H  0.22445460  0.43213659  0.35524188     0.14600
H437        H  0.36784847  0.58626626  0.38093571     0.46400
H438        H  0.22378605  0.57862747  0.39531324     0.41800
H439        H  0.13456280  0.43911806  0.33743018     0.45300
H440        H  0.27799411  0.41244370  0.40199807     0.36700
C441        C  0.00924412  0.04106200  0.47705202    -0.27500
C442        C  0.01560557  0.00130993  0.48842428     0.02100
C443        C  0.01949965  0.96179362  0.47635403     0.30200
C444        C  0.01735460  0.96256299  0.45328023    -0.19300
C445        C  0.01151236  0.00248528  0.44180791    -0.28700
C446        C  0.00734686  0.04198439  0.45401376     0.44200
C447        C  0.01638377  0.00152260  0.51287634     0.05400
O448        O  0.02546714  0.92224744  0.48694413    -0.57200
H449        H  0.02050796  0.93175300  0.44436401     0.18300
O450        O  0.99998086  0.08158717  0.44371190    -0.63900
H451        H  0.00499491  0.07158181  0.48610628     0.16800
C452        C  0.04485270  0.02992459  0.52460201     0.29000
C453        C  0.04300357  0.03149581  0.54768973    -0.24800
C454        C  0.01343046  0.00451895  0.55933108    -0.24100
C455        C  0.98547298  0.97567170  0.54763504     0.40500
C456        C  0.98694915  0.97447583  0.52460347    -0.26600
O457        O  0.07570301  0.05489192  0.51364702    -0.58500
H458        H  0.06526077  0.05322033  0.55652310     0.16100
O459        O  0.95590182  0.94914480  0.55854820    -0.59900
H460        H  0.96440105  0.95294236  0.51584575     0.14600
H461        H  0.02930147  0.09599938  0.44280331     0.46400
H462        H  0.06486665  0.08571828  0.51451946     0.41800
H463        H  0.92962625  0.96786396  0.56104216     0.45300
H464        H  0.05784001  0.91899518  0.48841978     0.36700
C465        C  0.70891461  0.96701104  0.38778761    -0.27500
C466        C  0.73110589  0.00355863  0.37880662     0.02100
C467        C  0.70647738  0.03811353  0.36942249     0.30200
C468        C  0.66036789  0.03567716  0.36911011    -0.19300
C469        C  0.63813537  0.99891593  0.37789007    -0.28700
C470        C  0.66285305  0.96453418  0.38744461     0.44200
C471        C  0.77995352  0.00404416  0.37849333     0.05400
O472        O  0.72726624  0.07297230  0.35931057    -0.57200
H473        H  0.64201326  0.06223355  0.36146998     0.18300
O474        O  0.64244838  0.92841547  0.39654994    -0.63900
H475        H  0.72746497  0.94023535  0.39511632     0.16800
C476        C  0.80426612  0.03935589  0.38752941     0.29000
C477        C  0.85040354  0.03879130  0.38679677    -0.24800
C478        C  0.87298700  0.00274946  0.37764775    -0.24100
C479        C  0.84859373  0.96728412  0.36877679     0.40500
C480        C  0.80253216  0.96814237  0.36927354    -0.26600
O481        O  0.78333570  0.07414210  0.39748602    -0.58500
H482        H  0.86857612  0.06621660  0.39382011     0.16100
O483        O  0.86934805  0.93187850  0.35926753    -0.59900
H484        H  0.78429524  0.94080031  0.36220278     0.14600
H485        H  0.63618071  0.93682367  0.41204603     0.46400
H486        H  0.77846703  0.06467196  0.41295719     0.41800
H487        H  0.87377221  0.94030859  0.34361989     0.45300
H488        H  0.72034163  0.09917703  0.36846952     0.36700
C489        C  0.30162759  0.95590372  0.37137829    -0.27500
C490        C  0.27977062  0.99617278  0.36796811     0.02100
C491        C  0.30504210  0.03483484  0.36510822     0.30200
C492        C  0.35100811  0.03315139  0.36653967    -0.19300
C493        C  0.37297287  0.99308119  0.37042501    -0.28700
C494        C  0.34776275  0.95406495  0.37247933     0.44200
C495        C  0.23077080  0.99799059  0.36855427     0.05400
O496        O  0.28513804  0.07460433  0.36099962    -0.57200
H497        H  0.36951173  0.06352048  0.36453844     0.18300
O498        O  0.36765309  0.91401688  0.37582934    -0.63900
H499        H  0.28286276  0.92584496  0.37382788     0.16800
C500        C  0.20468813  0.96848149  0.35615638     0.29000
C501        C  0.15858620  0.97000940  0.35778791    -0.24800
C502        C  0.13782431  0.00122153  0.37135846    -0.24100
C503        C  0.16377140  0.03125612  0.38339756     0.40500
C504        C  0.20979763  0.02905045  0.38220109    -0.26600
O505        O  0.22390124  0.93934869  0.34174400    -0.58500
H506        H  0.13896404  0.94716132  0.34813845     0.16100
O507        O  0.14452668  0.06139843  0.39724804    -0.59900
H508        H  0.22920586  0.05138418  0.39223792     0.14600
H509        H  0.36849055  0.91017463  0.39205271     0.46400
H510        H  0.21951795  0.90973974  0.34838885     0.41800
H511        H  0.14309257  0.08916634  0.38861919     0.45300
H512        H  0.28007309  0.07513139  0.34485123     0.36700
C513        C  0.46758424  0.50137356  0.77369640    -0.27500
C514        C  0.50835954  0.50070129  0.76288210     0.02100
C515        C  0.54743197  0.50306947  0.77523262     0.30200
C516        C  0.54543785  0.50541407  0.79827471    -0.19300
C517        C  0.50459868  0.50563243  0.80933328    -0.28700
C518        C  0.46538325  0.50397037  0.79671307     0.44200
C519        C  0.50961321  0.49914692  0.73860380     0.05400
O520        O  0.58768075  0.50347427  0.76488691    -0.57200
H521        H  0.57600472  0.50692795  0.80747957     0.18300
O522        O  0.42468555  0.50565668  0.80658038    -0.63900
H523        H  0.43731867  0.50023992  0.76421237     0.16800
C524        C  0.50307527  0.45931483  0.72720387     0.29000
C525        C  0.50270784  0.45904561  0.70409639    -0.24800
C526        C  0.50822740  0.49843367  0.69208043    -0.24100
C527        C  0.51558952  0.53819424  0.70372281     0.40500
C528        C  0.51611868  0.53825130  0.72678028    -0.26600
O529        O  0.49752660  0.42049984  0.73852843    -0.58500
H530        H  0.49737756  0.42803635  0.69560832     0.16100
O531        O  0.52189868  0.57735942  0.69281547    -0.59900
H532        H  0.52118975  0.56905864  0.73550310     0.14600
H533        H  0.41541438  0.47442660  0.80829295     0.46400
H534        H  0.46512675  0.41664358  0.73991842     0.41800
H535        H  0.55420913  0.57964874  0.69059227     0.45300
H536        H  0.59638251  0.47203852  0.76375758     0.36700
C537        C  0.46673205  0.00677929  0.77206439    -0.27500
C538        C  0.50588682  0.01943143  0.76147748     0.02100
C539        C  0.54318682  0.03000917  0.77419029     0.30200
C540        C  0.54123097  0.02685094  0.79720837    -0.19300
C541        C  0.50219874  0.01342397  0.80789077    -0.28700
C542        C  0.46456030  0.00392946  0.79505545     0.44200
C543        C  0.50793073  0.01894951  0.73713541     0.05400
O544        O  0.58187705  0.04266685  0.76425628    -0.57200
H545        H  0.57042540  0.03484453  0.80670578     0.18300
O546        O  0.42597747  0.99012162  0.80469359    -0.63900
H547        H  0.43777301  0.99865998  0.76240744     0.16800
C548        C  0.50079404  0.97939847  0.72557408     0.29000
C549        C  0.50222060  0.97905617  0.70256347    -0.24800
C550        C  0.51007895  0.01801819  0.69060746    -0.24100
C551        C  0.51733230  0.05776988  0.70225535     0.40500
C552        C  0.51636540  0.05793614  0.72537540    -0.26600
O553        O  0.49367303  0.94060412  0.73671130    -0.58500
H554        H  0.49667393  0.94808091  0.69407708     0.16100
O555        O  0.52512696  0.09663240  0.69130475    -0.59900
H556        H  0.52172673  0.08862763  0.73415165     0.14600
H557        H  0.40737817  0.01690156  0.80568360     0.46400
H558        H  0.46136828  0.93538827  0.73587025     0.41800
H559        H  0.55757165  0.09822375  0.68955581     0.45300
H560        H  0.59827085  0.01488482  0.76163936     0.36700
C561        C  0.45816648  0.80381608  0.88045390    -0.27500
C562        C  0.49526360  0.78062295  0.87293055     0.02100
C563        C  0.53158824  0.80424286  0.86451656     0.30200
C564        C  0.53104908  0.85039757  0.86442647    -0.19300
C565        C  0.49445208  0.87377771  0.87245837    -0.28700
C566        C  0.45742382  0.85002826  0.88016494     0.44200
C567        C  0.49572806  0.73180812  0.87399694     0.05400
O568        O  0.56694044  0.78239086  0.85554144    -0.57200
H569        H  0.55941396  0.86793464  0.85792909     0.18300
O570        O  0.42115686  0.87151990  0.88834440    -0.63900
H571        H  0.42994210  0.78600502  0.88692473     0.16800
C572        C  0.52961378  0.70922161  0.88515531     0.29000
C573        C  0.53000821  0.66311624  0.88549924    -0.24800
C574        C  0.49623170  0.63880572  0.87534394    -0.24100
C575        C  0.46188279  0.66136940  0.86451931     0.40500
C576        C  0.46177411  0.70753955  0.86395606    -0.26600
O577        O  0.56220455  0.73188799  0.89602957    -0.58500
H578        H  0.55645911  0.64630702  0.89405965     0.16100
O579        O  0.42884417  0.63867907  0.85399566    -0.59900
H580        H  0.43548224  0.72447196  0.85533821     0.14600
H581        H  0.39974174  0.87213605  0.87599895     0.46400
H582        H  0.54950151  0.73920523  0.91065094     0.41800
H583        H  0.44043704  0.63254251  0.83900581     0.45300
H584        H  0.59225860  0.78890918  0.86537526     0.36700
C585        C  0.54786819  0.20817370  0.87171103    -0.27500
C586        C  0.50864411  0.23238054  0.87363547     0.02100
C587        C  0.46834617  0.20958976  0.87594813     0.30200
C588        C  0.46768935  0.16351720  0.87630878    -0.19300
C589        C  0.50691498  0.13914438  0.87465598    -0.28700
C590        C  0.54730496  0.16199624  0.87223171     0.44200
C591        C  0.50983209  0.28130572  0.87333278     0.05400
O592        O  0.42934256  0.23203849  0.87812840    -0.57200
H593        H  0.43622822  0.14687060  0.87810892     0.18300
O594        O  0.58646113  0.13972326  0.87033721    -0.63900
H595        H  0.57907910  0.22510987  0.86955439     0.16800
C596        C  0.53779761  0.30514208  0.88760731     0.29000
C597        C  0.53649373  0.35133467  0.88781523    -0.24800
C598        C  0.50716195  0.37423068  0.87412550    -0.24100
C599        C  0.48002386  0.35053199  0.85948310     0.40500
C600        C  0.48169938  0.30447203  0.85906257    -0.26600
O601        O  0.56456436  0.28355230  0.90229071    -0.58500
H602        H  0.55749814  0.36925248  0.89917838     0.16100
O603        O  0.45192814  0.37207912  0.84542104    -0.59900
H604        H  0.46073008  0.28672919  0.84762104     0.14600
H605        H  0.59106459  0.13582321  0.85425276     0.46400
H606        H  0.59492535  0.28710187  0.89640723     0.41800
H607        H  0.47032003  0.38054003  0.83253918     0.45300
H608        H  0.42687218  0.23888549  0.89407438     0.36700
C609        C  0.95849230  0.48458554  0.77323801    -0.27500
C610        C  0.99722012  0.49489890  0.76168671     0.02100
C611        C  0.03603906  0.50445715  0.77345545     0.30200
C612        C  0.03572133  0.50372285  0.79650746    -0.19300
C613        C  0.99691282  0.49356929  0.80817747    -0.28700
C614        C  0.95809875  0.48372077  0.79628725     0.44200
C615        C  0.99684394  0.49544436  0.73734306     0.05400
O616        O  0.07449291  0.51437573  0.76256384    -0.57200
H617        H  0.06592604  0.51136647  0.80525846     0.18300
O618        O  0.91960679  0.47303506  0.80695336    -0.63900
H619        H  0.92836942  0.47734030  0.76432964     0.16800
C620        C  0.98577107  0.45734255  0.72532500     0.29000
C621        C  0.98664201  0.45821996  0.70227980    -0.24800
C622        C  0.99779069  0.49704381  0.69085162    -0.24100
C623        C  0.00805575  0.53547799  0.70298302     0.40500
C624        C  0.00785149  0.53431094  0.72604977    -0.26600
O625        O  0.97592732  0.41860976  0.73599286    -0.58500
H626        H  0.97853579  0.42832170  0.69334893     0.16100
O627        O  0.01987982  0.57389535  0.69254554    -0.59900
H628        H  0.01623739  0.56389944  0.73518044     0.14600
H629        H  0.92022737  0.44049513  0.80852147     0.46400
H630        H  0.94332338  0.41599427  0.73534142     0.41800
H631        H  0.99254931  0.59173033  0.69197010     0.45300
H632        H  0.08801326  0.48547182  0.75905236     0.36700
C633        C  0.96570308  0.97591346  0.77310635    -0.27500
C634        C  0.99885143  0.00046856  0.76256453     0.02100
C635        C  0.03140743  0.02161755  0.77524574     0.30200
C636        C  0.03062570  0.01797838  0.79822126    -0.19300
C637        C  0.99728242  0.99375615  0.80885379    -0.28700
C638        C  0.96462697  0.97259102  0.79611744     0.44200
C639        C  0.00013621  0.00257286  0.73827397     0.05400
O640        O  0.06422210  0.04571260  0.76530164    -0.57200
H641        H  0.05581670  0.03468591  0.80777290     0.18300
O642        O  0.93187186  0.94821986  0.80594908    -0.63900
H643        H  0.94062057  0.95931596  0.76343456     0.16800
C644        C  0.00739298  0.96417644  0.72584928     0.29000
C645        C  0.00897473  0.96650954  0.70287288    -0.24800
C646        C  0.00354271  0.00698959  0.69183214    -0.24100
C647        C  0.99606461  0.04552062  0.70439375     0.40500
C648        C  0.99472490  0.04309674  0.72745990    -0.26600
O649        O  0.01342878  0.92422900  0.73605262    -0.58500
H650        H  0.01481870  0.93640120  0.69370415     0.16100
O651        O  0.99018558  0.08568512  0.69440635    -0.59900
H652        H  0.98908306  0.07285682  0.73695130     0.14600
H653        H  0.94396115  0.91795089  0.80718696     0.46400
H654        H  0.04524149  0.92321289  0.73977335     0.41800
H655        H  0.95789435  0.08834496  0.69223621     0.45300
H656        H  0.08837655  0.02442196  0.76259593     0.36700
C657        C  0.95710053  0.78927381  0.87050987    -0.27500
C658        C  0.99591505  0.76649827  0.87578840     0.02100
C659        C  0.03428267  0.79062866  0.88095801     0.30200
C660        C  0.03350759  0.83674354  0.88068154    -0.19300
C661        C  0.99460157  0.85966043  0.87556994    -0.28700
C662        C  0.95615444  0.83540634  0.87040431     0.44200
C663        C  0.99619966  0.71762768  0.87560716     0.05400
O664        O  0.07264622  0.76945441  0.88650266    -0.57200
H665        H  0.06340453  0.85459780  0.88476143     0.18300
O666        O  0.91754384  0.85628802  0.86501804    -0.63900
H667        H  0.92750111  0.77120724  0.86613774     0.16800
C668        C  0.96496569  0.69322268  0.88779675     0.29000
C669        C  0.96584617  0.64706626  0.88732127    -0.24800
C670        C  0.99783670  0.62465200  0.87494079    -0.24100
C671        C  0.02898274  0.64904535  0.86268144     0.40500
C672        C  0.02789975  0.69515169  0.86302763    -0.26600
O673        O  0.93483689  0.71421721  0.90101902    -0.58500
H674        H  0.94196447  0.62874978  0.89701180     0.16100
O675        O  0.06021905  0.62821199  0.85005678    -0.59900
H676        H  0.05168875  0.71345705  0.85327903     0.14600
H677        H  0.91896623  0.86072331  0.84880612     0.46400
H678        H  0.90611102  0.71106631  0.89333242     0.41800
H679        H  0.04544185  0.62180770  0.83583862     0.45300
H680        H  0.07023519  0.76364467  0.90255993     0.36700
C681        C  0.02781565  0.19536173  0.88453421    -0.27500
C682        C  0.99676736  0.21764969  0.87151732     0.02100
C683        C  0.96609548  0.19311915  0.85907693     0.30200
C684        C  0.96614760  0.14696306  0.86025601    -0.19300
C685        C  0.99699396  0.12477588  0.87342220    -0.28700
C686        C  0.02833763  0.14928094  0.88540817     0.44200
C687        C  0.99683883  0.26648426  0.87128336     0.05400
O688        O  0.93750908  0.21393770  0.84496030    -0.57200
H689        H  0.94254468  0.12844016  0.85052285     0.18300
O690        O  0.05831239  0.12858693  0.89879699    -0.63900
H691        H  0.05145474  0.21382348  0.89427223     0.16800
C692        C  0.95871828  0.29053953  0.87678938     0.29000
C693        C  0.96003088  0.33661374  0.87717216    -0.24800
C694        C  0.99931930  0.35956117  0.87260440    -0.24100
C695        C  0.03753326  0.33541174  0.86711406     0.40500
C696        C  0.03606681  0.28927867  0.86655379    -0.26600
O697        O  0.92029311  0.26935529  0.88241400    -0.58500
H698        H  0.93031085  0.35438688  0.88154369     0.16100
O699        O  0.07646526  0.35640469  0.86222970    -0.59900
H700        H  0.06569551  0.27117607  0.86235141     0.14600
H701        H  0.08580075  0.12687824  0.88996706     0.46400
H702        H  0.92236109  0.26428389  0.89853274     0.41800
H703        H  0.07621259  0.36032938  0.84599453     0.45300
H704        H  0.90755670  0.20803479  0.85087660     0.36700
C705        C  0.53771459  0.49246681  0.22673826    -0.27500
C706        C  0.49877191  0.49057711  0.23914696     0.02100
C707        C  0.45783462  0.49081626  0.22818495     0.30200
C708        C  0.45625707  0.49420525  0.20518487    -0.19300
C709        C  0.49522738  0.49683034  0.19267336    -0.28700
C710        C  0.53628323  0.49516192  0.20372849     0.44200
C711        C  0.50105020  0.49086891  0.26353156     0.05400
O712        O  0.41912483  0.48794998  0.23983774    -0.57200
H713        H  0.42436317  0.49470245  0.19715255     0.18300
O714        O  0.57534972  0.49703452  0.19233084    -0.63900
H715        H  0.56944564  0.49273254  0.23494103     0.16800
C716        C  0.52553835  0.45910264  0.27524765     0.29000
C717        C  0.52644398  0.46021533  0.29835602    -0.24800
C718        C  0.50418279  0.49350820  0.30995963    -0.24100
C719        C  0.48034078  0.52561012  0.29819247     0.40500
C720        C  0.47872816  0.52396348  0.27519437    -0.26600
O721        O  0.54723116  0.42598841  0.26429483    -0.58500
H722        H  0.54493340  0.43529980  0.30720641     0.16100
O723        O  0.45672043  0.55747974  0.30906348    -0.59900
H724        H  0.46006547  0.54882032  0.26639724     0.14600
H725        H  0.58373661  0.46584404  0.18980418     0.46400
H726        H  0.57892865  0.43406003  0.26497701     0.41800
H727        H  0.47568941  0.58413973  0.30877398     0.45300
H728        H  0.41422136  0.45587810  0.24218582     0.36700
C729        C  0.52793297  0.52416824  0.97815216    -0.27500
C730        C  0.49229358  0.50358215  0.98884481     0.02100
C731        C  0.45881607  0.48397202  0.97607148     0.30200
C732        C  0.46114061  0.48534010  0.95301855    -0.19300
C733        C  0.49700575  0.50551451  0.94228274    -0.28700
C734        C  0.53050442  0.52521594  0.95509642     0.44200
C735        C  0.49040912  0.50265172  0.01329883     0.05400
O736        O  0.42397264  0.46283417  0.98596736    -0.57200
H737        H  0.43513606  0.46984273  0.94350921     0.18300
O738        O  0.56557287  0.54618904  0.94530789    -0.63900
H739        H  0.55365185  0.53996430  0.98773034     0.16800
C740        C  0.52561207  0.48539556  0.02567039     0.29000
C741        C  0.52353368  0.48527376  0.04871273    -0.24800
C742        C  0.48662878  0.50221973  0.05989104    -0.24100
C743        C  0.45112757  0.51906809  0.04750544     0.40500
C744        C  0.45332913  0.51940069  0.02439466    -0.26600
O745        O  0.56146080  0.46705996  0.01534419    -0.58500
H746        H  0.55094806  0.47155108  0.05786868     0.16100
O747        O  0.41506288  0.53704112  0.05777052    -0.59900
H748        H  0.42621110  0.53330982  0.01509456     0.14600
H749        H  0.55537573  0.57675006  0.94256848     0.46400
H750        H  0.58570873  0.48882496  0.01717928     0.41800
H751        H  0.39258060  0.51323665  0.05791481     0.45300
H752        H  0.43431912  0.43229210  0.98862300     0.36700
C753        C  0.46334366  0.99746564  0.22711522    -0.27500
C754        C  0.50431309  0.99599451  0.23779019     0.02100
C755        C  0.54320300  0.99556270  0.22518300     0.30200
C756        C  0.54080953  0.99677880  0.20218461    -0.19300
C757        C  0.49982132  0.99848818  0.19132205    -0.28700
C758        C  0.46081851  0.99848731  0.20407427     0.44200
C759        C  0.50618993  0.99573307  0.26211004     0.05400
O760        O  0.58374063  0.99446992  0.23520293    -0.57200
H761        H  0.57130683  0.99658326  0.19285717     0.18300
O762        O  0.42008957  0.00018201  0.19430263    -0.63900
H763        H  0.43316736  0.99761137  0.23671122     0.16800
C764        C  0.48873458  0.03104164  0.27431573     0.29000
C765        C  0.49088945  0.03047496  0.29731905    -0.24800
C766        C  0.50959799  0.99454029  0.30852271    -0.24100
C767        C  0.52741753  0.95926871  0.29625225     0.40500
C768        C  0.52568101  0.96012238  0.27318781    -0.26600
O769        O  0.47070282  0.06684156  0.26383987    -0.58500
H770        H  0.47713942  0.05798528  0.30641610     0.16100
O771        O  0.54671874  0.92395981  0.30656742    -0.59900
H772        H  0.53929422  0.93278949  0.26390462     0.14600
H773        H  0.41070560  0.96898032  0.19277461     0.46400
H774        H  0.43829407  0.06278219  0.26507599     0.41800
H775        H  0.57820591  0.93217730  0.30818021     0.45300
H776        H  0.59098589  0.02571052  0.23847481     0.36700
C777        C  0.53265400  0.98150092  0.97565120    -0.27500
C778        C  0.49778720  0.00108010  0.98729040     0.02100
C779        C  0.46341713  0.02140822  0.97543852     0.30200
C780        C  0.46418532  0.02162375  0.95231333    -0.19300
C781        C  0.49916834  0.00217310  0.94064965    -0.28700
C782        C  0.53363563  0.98203888  0.95256275     0.44200
C783        C  0.49827704  0.00089320  0.01177615     0.05400
O784        O  0.43028471  0.04321818  0.98634388    -0.57200
H785        H  0.43774503  0.03791093  0.94350231     0.18300
O786        O  0.56770322  0.96144971  0.94182377    -0.63900
H787        H  0.55919403  0.96551316  0.98452753     0.16800
C788        C  0.46252826  0.98394221  0.02400345     0.29000
C789        C  0.46319967  0.98548263  0.04706704    -0.24800
C790        C  0.49984310  0.00254728  0.05841316    -0.24100
C791        C  0.53628688  0.01820591  0.04615395     0.40500
C792        C  0.53522413  0.01736164  0.02305891    -0.26600
O793        O  0.42711748  0.96498142  0.01358638    -0.58500
H794        H  0.43523219  0.97239899  0.05610939     0.16100
O795        O  0.57300054  0.03470221  0.05650218    -0.59900
H796        H  0.56319916  0.03012121  0.01390085     0.14600
H797        H  0.59209637  0.98329137  0.94163625     0.46400
H798        H  0.43506338  0.93346049  0.01182256     0.41800
H799        H  0.56743877  0.06674505  0.05810905     0.45300
H800        H  0.40309410  0.02592131  0.98347245     0.36700
C801        C  0.45559885  0.70678835  0.12311159    -0.27500
C802        C  0.49634812  0.72838184  0.12535522     0.02100
C803        C  0.53481667  0.70311612  0.12813192     0.30200
C804        C  0.53224568  0.65707126  0.12861446    -0.19300
C805        C  0.49157476  0.63521665  0.12623701    -0.28700
C806        C  0.45297833  0.66064703  0.12339683     0.44200
C807        C  0.49851792  0.77721982  0.12476723     0.05400
O808        O  0.57523521  0.72312104  0.13017164    -0.57200
H809        H  0.56238030  0.63843802  0.13079185     0.18300
O810        O  0.41251642  0.64094567  0.12088846    -0.63900
H811        H  0.42561931  0.72579482  0.12119971     0.16800
C812        C  0.48086442  0.80104592  0.10688369     0.29000
C813        C  0.48295643  0.84717659  0.10677088    -0.24800
C814        C  0.50293914  0.86997826  0.12419996    -0.24100
C815        C  0.52096997  0.84639006  0.14196941     0.40500
C816        C  0.51840451  0.80027382  0.14225575    -0.26600
O817        O  0.46293650  0.77943597  0.08912976    -0.58500
H818        H  0.46905907  0.86523189  0.09300382     0.16100
O819        O  0.53891897  0.86821304  0.15964443    -0.59900
H820        H  0.53145698  0.78245814  0.15629594     0.14600
H821        H  0.40831282  0.63818214  0.10473121     0.46400
H822        H  0.43059034  0.78348853  0.09052324     0.41800
H823        H  0.57090391  0.87025766  0.15638188     0.45300
H824        H  0.58583507  0.72745572  0.11484591     0.36700
C825        C  0.45155350  0.29917675  0.13485727    -0.27500
C826        C  0.48982964  0.27626726  0.12870319     0.02100
C827        C  0.52699694  0.30023300  0.12149341     0.30200
C828        C  0.52569041  0.34634166  0.12079609    -0.19300
C829        C  0.48758206  0.36939846  0.12707992    -0.28700
C830        C  0.45024084  0.34533934  0.13418044     0.44200
C831        C  0.49014323  0.22735844  0.12906276     0.05400
O832        O  0.56385113  0.27873625  0.11393998    -0.57200
H833        H  0.55455209  0.36405411  0.11500523     0.18300
O834        O  0.41238162  0.36645036  0.14062144    -0.63900
H835        H  0.42265830  0.28117193  0.14038186     0.16800
C836        C  0.52357609  0.20384421  0.14008689     0.29000
C837        C  0.52521198  0.15782842  0.13861005    -0.24800
C838        C  0.49272660  0.13440046  0.12699891    -0.24100
C839        C  0.45797506  0.15776554  0.11692663     0.40500
C840        C  0.45703392  0.20388721  0.11790556    -0.26600
O841        O  0.55451135  0.22548007  0.15256405    -0.58500
H842        H  0.55147737  0.14033257  0.14696290     0.16100
O843        O  0.42523690  0.13596184  0.10572184    -0.59900
H844        H  0.43082938  0.22143638  0.10953247     0.14600
H845        H  0.41607522  0.37196165  0.15662655     0.46400
H846        H  0.54074751  0.22900378  0.16730826     0.41800
H847        H  0.43569636  0.13428649  0.09025342     0.45300
H848        H  0.58757170  0.28584391  0.12464023     0.36700
C849        C  0.99913820  0.45518112  0.27291860    -0.27500
C850        C  0.00797593  0.49449920  0.26159557     0.02100
C851        C  0.01689386  0.53321267  0.27357432     0.30200
C852        C  0.01628598  0.53237308  0.29665667    -0.19300
C853        C  0.00735982  0.49303030  0.30814905    -0.28700
C854        C  0.99891543  0.45411070  0.29598269     0.44200
C855        C  0.00626922  0.49509699  0.23726372     0.05400
O856        O  0.02425573  0.57239981  0.26282487    -0.57200
H857        H  0.02269626  0.56272131  0.30554527     0.18300
O858        O  0.99032340  0.41479865  0.30637023    -0.63900
H859        H  0.99228334  0.42518081  0.26380365     0.16800
C860        C  0.04394371  0.50509378  0.22468434     0.29000
C861        C  0.04104130  0.50725022  0.20169529    -0.24800
C862        C  0.00087941  0.49891316  0.19084124    -0.24100
C863        C  0.96350399  0.48731294  0.20353460     0.40500
C864        C  0.96641072  0.48569439  0.22655192    -0.26600
O865        O  0.08378768  0.51257381  0.23471852    -0.58500
H866        H  0.07043440  0.51544552  0.19236389     0.16100
O867        O  0.92396693  0.47746280  0.19370886    -0.59900
H868        H  0.93732589  0.47739528  0.23611443     0.14600
H869        H  0.95776997  0.41339404  0.30774015     0.46400
H870        H  0.09812952  0.48321694  0.23552569     0.41800
H871        H  0.92459964  0.44512656  0.19126447     0.45300
H872        H  0.05649952  0.57757334  0.26385975     0.36700
C873        C  0.95817110  0.48754920  0.02289531    -0.27500
C874        C  0.99813736  0.49269245  0.01146012     0.02100
C875        C  0.03721665  0.49972204  0.02348052     0.30200
C876        C  0.03586032  0.50228261  0.04649090    -0.19300
C877        C  0.99583113  0.49768098  0.05802440    -0.28700
C878        C  0.95676272  0.48994609  0.04596202     0.44200
C879        C  0.99870458  0.49172050  0.98700953     0.05400
O880        O  0.07701769  0.50395172  0.01289037    -0.57200
H881        H  0.06640421  0.50793317  0.05531868     0.18300
O882        O  0.91721077  0.48351947  0.05649984    -0.63900
H883        H  0.92777747  0.48223240  0.01389165     0.16800
C884        C  0.98064612  0.45590515  0.97522058     0.29000
C885        C  0.98125918  0.45611066  0.95211582    -0.24800
C886        C  0.00018712  0.49146009  0.94056627    -0.24100
C887        C  0.01815138  0.52725689  0.95225742     0.40500
C888        C  0.01724187  0.52728079  0.97532237    -0.26600
O889        O  0.96411316  0.41981840  0.98615303    -0.58500
H890        H  0.96750197  0.42832573  0.94319051     0.16100
O891        O  0.03584313  0.56273133  0.94127665    -0.59900
H892        H  0.03060831  0.55539088  0.98413006     0.14600
H893        H  0.90256057  0.51270594  0.05635337     0.46400
H894        H  0.93159011  0.42180167  0.98456820     0.41800
H895        H  0.01046923  0.58213141  0.93788977     0.45300
H896        H  0.08730813  0.47332978  0.01039522     0.36700
C897        C  0.99447170  0.96364648  0.27372196    -0.27500
C898        C  0.98786512  0.00354706  0.26258791     0.02100
C899        C  0.98499537  0.04300963  0.27465529     0.30200
C900        C  0.98905792  0.04221803  0.29766883    -0.19300
C901        C  0.99606445  0.00224593  0.30897042    -0.28700
C902        C  0.99857580  0.96267794  0.29668458     0.44200
C903        C  0.98656253  0.00364289  0.23826254     0.05400
O904        O  0.97868547  0.08250514  0.26407620    -0.57200
H905        H  0.98681780  0.07302861  0.30665428     0.18300
O906        O  0.00503487  0.92278436  0.30685690    -0.63900
H907        H  0.99685042  0.93310383  0.26450240     0.16800
C908        C  0.02521984  0.99578864  0.22613888     0.29000
C909        C  0.02387425  0.99518532  0.20311631    -0.24800
C910        C  0.98401156  0.00162253  0.19172774    -0.24100
C911        C  0.94504799  0.00905974  0.20399710     0.40500
C912        C  0.94666959  0.01044661  0.22711813    -0.26600
O913        O  0.06475143  0.98981007  0.23669972    -0.58500
H914        H  0.05427898  0.98944622  0.19417209     0.16100
O915        O  0.90550354  0.01615110  0.19363687    -0.59900
H916        H  0.91668701  0.01640528  0.23638632     0.14600
H917        H  0.03741845  0.91844585  0.30689807     0.46400
H918        H  0.06799411  0.95738229  0.23820184     0.41800
H919        H  0.89078395  0.98693068  0.19330079     0.45300
H920        H  0.00873586  0.09349939  0.26060639     0.36700
C921        C  0.02720072  0.98257561  0.02448307    -0.27500
C922        C  0.99428107  0.00413331  0.01235060     0.02100
C923        C  0.96013526  0.02603169  0.02371018     0.30200
C924        C  0.95872538  0.02522055  0.04679009    -0.19300
C925        C  0.99170864  0.00368630  0.05891267    -0.28700
C926        C  0.02639216  0.98262945  0.04755456     0.44200
C927        C  0.99480533  0.00193419  0.98790882     0.05400
O928        O  0.92801989  0.04839185  0.01239901    -0.57200
H929        H  0.93210294  0.04202276  0.05523964     0.18300
O930        O  0.05840702  0.96000415  0.05880971    -0.63900
H931        H  0.05318570  0.96480535  0.01604486     0.16800
C932        C  0.03254964  0.01394475  0.97571080     0.29000
C933        C  0.03217535  0.01093662  0.95265454    -0.24800
C934        C  0.99450523  0.99596051  0.94140287    -0.24100
C935        C  0.95695954  0.98348647  0.95367229     0.40500
C936        C  0.95734269  0.98656422  0.97668451    -0.26600
O937        O  0.06920644  0.03046333  0.98612333    -0.58500
H938        H  0.06126806  0.02105247  0.94354904     0.16100
O939        O  0.91981919  0.96778477  0.94340564    -0.59900
H940        H  0.92836525  0.97632492  0.98584550     0.14600
H941        H  0.08392984  0.98045160  0.05953938     0.46400
H942        H  0.09158414  0.00665258  0.98528671     0.41800
H943        H  0.92417328  0.93544458  0.94233519     0.45300
H944        H  0.94049219  0.07817968  0.00971973     0.36700
C945        C  0.96978058  0.70313456  0.13987368    -0.27500
C946        C  0.99250360  0.72696181  0.12353847     0.02100
C947        C  0.01756470  0.70376505  0.10770673     0.30200
C948        C  0.01986946  0.65767588  0.10850392    -0.19300
C949        C  0.99631344  0.63404209  0.12452694    -0.28700
C950        C  0.97122646  0.65702661  0.14031503     0.44200
C951        C  0.99073460  0.77591193  0.12343564     0.05400
O952        O  0.03935121  0.72575816  0.09116806    -0.57200
H953        H  0.03900841  0.64026814  0.09617149     0.18300
O954        O  0.94845208  0.63472499  0.15642047    -0.63900
H955        H  0.95119908  0.72032683  0.15247645     0.16800
C956        C  0.95027027  0.79867078  0.12428081     0.29000
C957        C  0.94976403  0.84492871  0.12436440    -0.24800
C958        C  0.98927262  0.86925133  0.12368390    -0.24100
C959        C  0.02970388  0.84624293  0.12243953     0.40500
C960        C  0.03013511  0.80015866  0.12260610    -0.26600
O961        O  0.91104366  0.77598830  0.12416773    -0.58500
H962        H  0.91828230  0.86172089  0.12502113     0.16100
O963        O  0.06918857  0.86828350  0.12114451    -0.59900
H964        H  0.06157840  0.78325223  0.12217163     0.14600
H965        H  0.97041159  0.62866284  0.16811921     0.46400
H966        H  0.89904618  0.77897941  0.13932931     0.41800
H967        H  0.07453668  0.87259644  0.10514296     0.45300
H968        H  0.01662154  0.73179527  0.07982444     0.36700
C969        C  0.02627636  0.29901228  0.13722270    -0.27500
C970        C  0.99194234  0.27658085  0.12642575     0.02100
C971        C  0.95938988  0.30097275  0.11527512     0.30200
C972        C  0.96139269  0.34699974  0.11509500    -0.19300
C973        C  0.99611117  0.36941449  0.12555413    -0.28700
C974        C  0.02863960  0.34508702  0.13677397     0.44200
C975        C  0.99064578  0.22778273  0.12661436     0.05400
O976        O  0.92583848  0.28012809  0.10421999    -0.57200
H977        H  0.93609732  0.36521286  0.10638093     0.18300
O978        O  0.06238357  0.36594587  0.14767616    -0.63900
H979        H  0.05114002  0.28074130  0.14619811     0.16800
C980        C  0.02738155  0.20309987  0.11970181     0.29000
C981        C  0.02531651  0.15706025  0.11959962    -0.24800
C982        C  0.98690343  0.13479088  0.12631922    -0.24100
C983        C  0.95015354  0.15953677  0.13336768     0.40500
C984        C  0.95226725  0.20566844  0.13348691    -0.26600
O985        O  0.06468275  0.22375295  0.11201249    -0.58500
H986        H  0.05381337  0.13876229  0.11391845     0.16100
O987        O  0.91214865  0.13912798  0.14028259    -0.59900
H988        H  0.92390969  0.22426564  0.13910046     0.14600
H989        H  0.05057427  0.37246480  0.16258229     0.46400
H990        H  0.08703456  0.22000466  0.12381869     0.41800
H991        H  0.91568744  0.13531718  0.15642959     0.45300
H992        H  0.93775023  0.27406733  0.08928664     0.36700
loop_ 
_geom_bond_atom_site_label_1 
_geom_bond_atom_site_label_2 
_geom_bond_distance 
_geom_bond_site_symmetry_2 
_ccdc_geom_bond_type 
O1            V9   1.904       .  S
O1           C11   1.266       .  A
O2            V9   1.904   1_565  S
O2           C12   1.265   1_565  A
O3            V9   1.900       .  S
O3           C13   1.265       .  A
O4            V9   1.905   1_565  S
O4           C14   1.267       .  A
O5           V10   1.889   1_565  S
O5           C14   1.262   1_455  A
O6           V10   1.890       .  S
O6           C13   1.263   1_455  A
O7           V10   1.894       .  S
O7           C12   1.264   1_455  A
O8           V10   1.894       .  S
O8           C11   1.263   1_455  A
V9           V10   2.085   1_655  T
C11         C925   1.477       .  S
C12         C910   1.484       .  S
C13         C982   1.477       .  S
C14         C958   1.483       .  S
O15          V23   1.903       .  S
O15          C25   1.265   1_455  A
O16          V23   1.900       .  S
O16          C26   1.265   1_455  A
O17          V23   1.894       .  S
O17          C27   1.264   1_455  A
O18          V23   1.894       .  S
O18          C28   1.264   1_455  A
O19          V24   1.900       .  S
O19          C28   1.265       .  A
O20          V24   1.903       .  S
O20          C27   1.266       .  A
O21          V24   1.889       .  S
O21          C26   1.262       .  A
O22          V24   1.894       .  S
O22          C25   1.262       .  A
V23          V24   2.085   1_455  T
C25         C949   1.470       .  S
C26         C973   1.472       .  S
C27         C877   1.483       .  S
C28         C862   1.482   1_655  S
O29          V37   1.890   1_565  S
O29          C39   1.261       .  A
O30          V37   1.894       .  S
O30          C40   1.262       .  A
O31          V37   1.900       .  S
O31          C41   1.266       .  A
O32          V37   1.904   1_565  S
O32          C42   1.266   1_565  A
O33          V38   1.890       .  S
O33          C42   1.263       .  A
O34          V38   1.899       .  S
O34          C41   1.264       .  A
O35          V38   1.902       .  S
O35          C40   1.266       .  A
O36          V38   1.903   1_565  S
O36          C39   1.265       .  A
V37          V38   2.087       .  T
C39         C814   1.464       .  S
C40         C838   1.476       .  S
C41         C790   1.482       .  S
C42         C757   1.482   1_545  S
O43          V51   1.898       .  S
O43          C53   1.265       .  A
O44          V51   1.895       .  S
O44          C54   1.265       .  A
O45          V51   1.889       .  S
O45          C55   1.262       .  A
O46          V51   1.889       .  S
O46          C56   1.262       .  A
O47          V52   1.906       .  S
O47          C56   1.267       .  A
O48          V52   1.908       .  S
O48          C55   1.267       .  A
O49          V52   1.898       .  S
O49          C54   1.264       .  A
O50          V52   1.899       .  S
O50          C53   1.264       .  A
V51          V52   2.085       .  T
C53         C805   1.483       .  S
C54         C829   1.479       .  S
C55         C742   1.480       .  S
C56         C709   1.484       .  S
O57          V65   1.897       .  S
O57          C67   1.264   1_455  A
O58          V65   1.896       .  S
O58          C68   1.264   1_455  A
O59          V65   1.898       .  S
O59          C69   1.265   1_455  A
O60          V65   1.894   1_545  S
O60          C70   1.263   1_455  A
O61          V66   1.898   1_545  S
O61          C70   1.264       .  A
O62          V66   1.895       .  S
O62          C69   1.264       .  A
O63          V66   1.899       .  S
O63          C68   1.265       .  A
O64          V66   1.896       .  S
O64          C67   1.263       .  A
V65          V66   2.086   1_455  T
C67         C637   1.473       .  S
C68         C934   1.479       .  S
C69         C661   1.480       .  S
C70         C685   1.471       .  S
O71          V79   1.895       .  S
O71          C81   1.263   1_455  A
O72          V79   1.899       .  S
O72          C82   1.265   1_455  A
O73          V79   1.896       .  S
O73          C83   1.264   1_455  A
O74          V79   1.901       .  S
O74          C84   1.264   1_455  A
O75          V80   1.895       .  S
O75          C84   1.262       .  A
O76          V80   1.895       .  S
O76          C83   1.264       .  A
O77          V80   1.893       .  S
O77          C82   1.264       .  A
O78          V80   1.898       .  S
O78          C81   1.264       .  A
V79          V80   2.086   1_455  T
C81         C670   1.472       .  S
C82         C694   1.479       .  S
C83         C613   1.478       .  S
C84         C886   1.466   1_655  S
O85          V93   1.900   1_565  S
O85          C95   1.264       .  A
O86          V93   1.896       .  S
O86          C96   1.265       .  A
O87          V93   1.899       .  S
O87          C97   1.265       .  A
O88          V93   1.901       .  S
O88          C98   1.265       .  A
O89          V94   1.898       .  S
O89          C98   1.264       .  A
O90          V94   1.897       .  S
O90          C97   1.264       .  A
O91          V94   1.896       .  S
O91          C96   1.264       .  A
O92          V94   1.895   1_565  S
O92          C95   1.264       .  A
V93          V94   2.085       .  T
C95         C565   1.479       .  S
C96         C589   1.481       .  S
C97         C541   1.481       .  S
C98         C781   1.481       .  S
O99         V107   1.900       .  S
O99         C109   1.265       .  A
O100        V107   1.893       .  S
O100        C110   1.263       .  A
O101        V107   1.896       .  S
O101        C111   1.264       .  A
O102        V107   1.899       .  S
O102        C112   1.264       .  A
O103        V108   1.895       .  S
O103        C112   1.263       .  A
O104        V108   1.898       .  S
O104        C111   1.263       .  A
O105        V108   1.904       .  S
O105        C110   1.267       .  A
O106        V108   1.901       .  S
O106        C109   1.265       .  A
V107        V108   2.086       .  T
C109        C733   1.481       .  S
C110        C517   1.485       .  S
C111        C598   1.470       .  S
C112        C574   1.474       .  S
O113        V121   1.896       .  S
O113        C123   1.264       .  A
O114        V121   1.901       .  S
O114        C124   1.265       .  A
O115        V121   1.899   1_655  S
O115        C125   1.264       .  A
O116        V121   1.901       .  S
O116        C126   1.265       .  A
O117        V122   1.897       .  S
O117        C126   1.263   1_565  A
O118        V122   1.895   1_655  S
O118        C125   1.264   1_565  A
O119        V122   1.895       .  S
O119        C124   1.264   1_565  A
O120        V122   1.903       .  S
O120        C123   1.266   1_565  A
V121        V122   2.086   1_545  T
C123        C445   1.485       .  S
C124        C901   1.484   1_455  S
C125        C478   1.476       .  S
C126        C502   1.474       .  S
O127        V135   1.894       .  S
O127        C137   1.263       .  A
O128        V135   1.893       .  S
O128        C138   1.263       .  A
O129        V135   1.898       .  S
O129        C139   1.264       .  A
O130        V135   1.896   1_655  S
O130        C140   1.264       .  A
O131        V136   1.899   1_655  S
O131        C140   1.264       .  A
O132        V136   1.894       .  S
O132        C139   1.263       .  A
O133        V136   1.901       .  S
O133        C138   1.266       .  A
O134        V136   1.900       .  S
O134        C137   1.265       .  A
V135        V136   2.086       .  T
C137        C382   1.475       .  S
C138        C853   1.483       .  S
C139        C430   1.472       .  S
C140        C406   1.476       .  S
O141        V149   1.904       .  S
O141        C151   1.266       .  A
O142        V149   1.901       .  S
O142        C152   1.265       .  A
O143        V149   1.897       .  S
O143        C153   1.263       .  A
O144        V149   1.898       .  S
O144        C154   1.264       .  A
O145        V150   1.892       .  S
O145        C154   1.263   1_545  A
O146        V150   1.894       .  S
O146        C153   1.264   1_545  A
O147        V150   1.893       .  S
O147        C152   1.263   1_545  A
O148        V150   1.894       .  S
O148        C151   1.264   1_545  A
V149        V150   2.085   1_565  T
C151        C493   1.484       .  S
C152        C469   1.478       .  S
C153        C358   1.474       .  S
C154        C766   1.475       .  S
O155        V163   1.899       .  S
O155        C165   1.265       .  A
O156        V163   1.893       .  S
O156        C166   1.264       .  A
O157        V163   1.897       .  S
O157        C167   1.263       .  A
O158        V163   1.898       .  S
O158        C168   1.264       .  A
O159        V164   1.894       .  S
O159        C168   1.263       .  A
O160        V164   1.895       .  S
O160        C167   1.262       .  A
O161        V164   1.902       .  S
O161        C166   1.265       .  A
O162        V164   1.893       .  S
O162        C165   1.263       .  A
V163        V164   2.087       .  T
C165        C421   1.481       .  S
C166        C397   1.479       .  S
C167        C325   1.465       .  S
C168        C718   1.472       .  S
O169        V177   1.890       .  S
O169        C179   1.263   1_565  A
O170        V177   1.890       .  S
O170        C180   1.262   1_565  A
O171        V177   1.900       .  S
O171        C181   1.265   1_565  A
O172        V177   1.899   1_655  S
O172        C182   1.265   1_565  A
O173        V178   1.895   1_655  S
O173        C182   1.264       .  A
O174        V178   1.892       .  S
O174        C181   1.263       .  A
O175        V178   1.905       .  S
O175        C180   1.266       .  A
O176        V178   1.904       .  S
O176        C179   1.266       .  A
V177        V178   2.084   1_565  T
C179        C646   1.482       .  S
C180        C454   1.471       .  S
C181        C310   1.478       .  S
C182        C286   1.482       .  S
O183        V191   1.898       .  S
O183        C193   1.264       .  A
O184        V191   1.897   1_655  S
O184        C194   1.264       .  A
O185        V191   1.897   1_655  S
O185        C195   1.264       .  A
O186        V191   1.895       .  S
O186        C196   1.264       .  A
O187        V192   1.897       .  S
O187        C196   1.264       .  A
O188        V192   1.895       .  S
O188        C195   1.264   1_455  A
O189        V192   1.896   1_655  S
O189        C194   1.264       .  A
O190        V192   1.896       .  S
O190        C193   1.264       .  A
V191        V192   2.087       .  T
C193        C262   1.475       .  S
C194        C229   1.473       .  S
C195        C622   1.479       .  S
C196        C373   1.475       .  S
O197        V205   1.896       .  S
O197        C207   1.264   1_565  A
O198        V205   1.896       .  S
O198        C208   1.263   1_565  A
O199        V205   1.894       .  S
O199        C209   1.265   1_565  A
O200        V205   1.893       .  S
O200        C210   1.263   1_565  A
O201        V206   1.897       .  S
O201        C210   1.265       .  A
O202        V206   1.899       .  S
O202        C209   1.264       .  A
O203        V206   1.897       .  S
O203        C208   1.264       .  A
O204        V206   1.896       .  S
O204        C207   1.264       .  A
V205        V206   2.087   1_565  T
C207        C301   1.476       .  S
C208        C277   1.470       .  S
C209        C550   1.481       .  S
C210        C349   1.474       .  S
O211        V219   1.899       .  S
O211        C221   1.265       .  A
O212        V219   1.901       .  S
O212        C222   1.265       .  A
O213        V219   1.900       .  S
O213        C223   1.265       .  A
O214        V219   1.901       .  S
O214        C224   1.265       .  A
O215        V220   1.894       .  S
O215        C224   1.263       .  A
O216        V220   1.894       .  S
O216        C223   1.263       .  A
O217        V220   1.895       .  S
O217        C222   1.264       .  A
O218        V220   1.895       .  S
O218        C221   1.264       .  A
V219        V220   2.085       .  T
C221        C334   1.483       .  S
C222        C526   1.483       .  S
C223        C253   1.475       .  S
C224        C238   1.483       .  S
C225        C226   1.405       .  A
C225        C230   1.398       .  A
C225        H235   1.083       .  S
C226        C231   1.487       .  S
C226        C227   1.412       .  A
C227        C228   1.399       .  A
C227        O232   1.372       .  S
C228        C229   1.402       .  A
C228        H233   1.084       .  S
C229        C230   1.408       .  A
C230        O234   1.372       .  S
C231        C236   1.410       .  A
C231        C240   1.404       .  A
O232        H248   0.991       .  S
O234        H245   0.991       .  S
C236        C237   1.401       .  A
C236        O241   1.373       .  S
C237        C238   1.405       .  A
C237        H242   1.083       .  S
C238        C239   1.412       .  A
C239        C240   1.398       .  A
C239        O243   1.371       .  S
C240        H244   1.083       .  S
O241        H246   0.993       .  S
O243        H247   0.992       .  S
C249        C250   1.401       .  A
C249        C254   1.397       .  A
C249        H259   1.084       .  S
C250        C255   1.477       .  S
C250        C251   1.407       .  A
C251        C252   1.399       .  A
C251        O256   1.372       .  S
C252        C253   1.404       .  A
C252        H257   1.084       .  S
C253        C254   1.411       .  A
C254        O258   1.372       .  S
C255        C260   1.407       .  A
C255        C264   1.402       .  A
O256        H272   0.992       .  S
O258        H269   0.991       .  S
C260        C261   1.399       .  A
C260        O265   1.372       .  S
C261        C262   1.404       .  A
C261        H266   1.084       .  S
C262        C263   1.410       .  A
C263        C264   1.398       .  A
C263        O267   1.372       .  S
C264        H268   1.084       .  S
O265        H270   0.992       .  S
O267        H271   0.992       .  S
C273        C274   1.405   1_565  A
C273        C278   1.398       .  A
C273        H283   1.083       .  S
C274        C279   1.483       .  S
C274        C275   1.411       .  A
C275        C276   1.398       .  A
C275        O280   1.372       .  S
C276        C277   1.401       .  A
C276        H281   1.084       .  S
C277        C278   1.407   1_545  A
C278        O282   1.372       .  S
C279        C284   1.408   1_545  A
C279        C288   1.403       .  A
O280        H296   0.991       .  S
O282        H293   0.991       .  S
C284        C285   1.400       .  A
C284        O289   1.372       .  S
C285        C286   1.406   1_565  A
C285        H290   1.083       .  S
C286        C287   1.413       .  A
C287        C288   1.398       .  A
C287        O291   1.372       .  S
C288        H292   1.084       .  S
O289        H294   0.992       .  S
O291        H295   0.992       .  S
C297        C298   1.404       .  A
C297        C302   1.398       .  A
C297        H307   1.083       .  S
C298        C303   1.481       .  S
C298        C299   1.409   1_545  A
C299        C300   1.397       .  A
C299        O304   1.372       .  S
C300        C301   1.404   1_565  A
C300        H305   1.084       .  S
C301        C302   1.410       .  A
C302        O306   1.372       .  S
C303        C308   1.408       .  A
C303        C312   1.403   1_545  A
O304        H320   0.991       .  S
O306        H317   0.992       .  S
C308        C309   1.399       .  A
C308        O313   1.372       .  S
C309        C310   1.405       .  A
C309        H314   1.084       .  S
C310        C311   1.410   1_545  A
C311        C312   1.398       .  A
C311        O315   1.371       .  S
C312        H316   1.084       .  S
O313        H318   0.993       .  S
O315        H319   0.992       .  S
C321        C322   1.404       .  A
C321        C326   1.400       .  A
C321        H331   1.083       .  S
C322        C327   1.480       .  S
C322        C323   1.410       .  A
C323        C324   1.397       .  A
C323        O328   1.372       .  S
C324        C325   1.399       .  A
C324        H329   1.084       .  S
C325        C326   1.407       .  A
C326        O330   1.372       .  S
C327        C332   1.407       .  A
C327        C336   1.402       .  A
O328        H344   0.992       .  S
O330        H341   0.991       .  S
C332        C333   1.400       .  A
C332        O337   1.372       .  S
C333        C334   1.407       .  A
C333        H338   1.083       .  S
C334        C335   1.412       .  A
C335        C336   1.398       .  A
C335        O339   1.371       .  S
C336        H340   1.084       .  S
O337        H342   0.993       .  S
O339        H343   0.991       .  S
C345        C346   1.403   1_565  A
C345        C350   1.398       .  A
C345        H355   1.084       .  S
C346        C351   1.479   1_545  S
C346        C347   1.408       .  A
C347        C348   1.398       .  A
C347        O352   1.373       .  S
C348        C349   1.403       .  A
C348        H353   1.084       .  S
C349        C350   1.410   1_545  A
C350        O354   1.372       .  S
C351        C356   1.408   1_565  A
C351        C360   1.404       .  A
O352        H368   0.992       .  S
O354        H365   0.990       .  S
C356        C357   1.396       .  A
C356        O361   1.372       .  S
C357        C358   1.404   1_545  A
C357        H362   1.084       .  S
C358        C359   1.410       .  A
C359        C360   1.399       .  A
C359        O363   1.372       .  S
C360        H364   1.084       .  S
O361        H366   0.992       .  S
O363        H367   0.992       .  S
C369        C370   1.404       .  A
C369        C374   1.399       .  A
C369        H379   1.084       .  S
C370        C375   1.480       .  S
C370        C371   1.407   1_455  A
C371        C372   1.398       .  A
C371        O376   1.373       .  S
C372        C373   1.404   1_655  A
C372        H377   1.084       .  S
C373        C374   1.410       .  A
C374        O378   1.372       .  S
C375        C380   1.409       .  A
C375        C384   1.402   1_455  A
O376        H392   0.991       .  S
O378        H389   0.991       .  S
C380        C381   1.398       .  A
C380        O385   1.372       .  S
C381        C382   1.403       .  A
C381        H386   1.084       .  S
C382        C383   1.411   1_455  A
C383        C384   1.398       .  A
C383        O387   1.372       .  S
C384        H388   1.084       .  S
O385        H390   0.992       .  S
O387        H391   0.991       .  S
C393        C394   1.402       .  A
C393        C398   1.396       .  A
C393        H403   1.083       .  S
C394        C399   1.481       .  S
C394        C395   1.409       .  A
C395        C396   1.401       .  A
C395        O400   1.372       .  S
C396        C397   1.405       .  A
C396        H401   1.083       .  S
C397        C398   1.411       .  A
C398        O402   1.372       .  S
C399        C404   1.408       .  A
C399        C408   1.404       .  A
O400        H416   0.992       .  S
O402        H413   0.991       .  S
C404        C405   1.398       .  A
C404        O409   1.372       .  S
C405        C406   1.403       .  A
C405        H410   1.084       .  S
C406        C407   1.410       .  A
C407        C408   1.401       .  A
C407        O411   1.372       .  S
C408        H412   1.084       .  S
O409        H414   0.992       .  S
O411        H415   0.992       .  S
C417        C418   1.402       .  A
C417        C422   1.396       .  A
C417        H427   1.083       .  S
C418        C423   1.483       .  S
C418        C419   1.409       .  A
C419        C420   1.399       .  A
C419        O424   1.372       .  S
C420        C421   1.406       .  A
C420        H425   1.083       .  S
C421        C422   1.412       .  A
C422        O426   1.372       .  S
C423        C428   1.410       .  A
C423        C432   1.405       .  A
O424        H440   0.991       .  S
O426        H437   0.992       .  S
C428        C429   1.399       .  A
C428        O433   1.373       .  S
C429        C430   1.402       .  A
C429        H434   1.084       .  S
C430        C431   1.408       .  A
C431        C432   1.399       .  A
C431        O435   1.372       .  S
C432        H436   1.083       .  S
O433        H438   0.993       .  S
O435        H439   0.991       .  S
C441        C442   1.402       .  A
C441        C446   1.398       .  A
C441        H451   1.083       .  S
C442        C447   1.483       .  S
C442        C443   1.409   1_545  A
C443        C444   1.401       .  A
C443        O448   1.372       .  S
C444        C445   1.407   1_565  A
C444        H449   1.083       .  S
C445        C446   1.413       .  A
C446        O450   1.372   1_455  S
C447        C452   1.410       .  A
C447        C456   1.403   1_445  A
O448        H464   0.991       .  S
O450        H461   0.991   1_655  S
C452        C453   1.402       .  A
C452        O457   1.372       .  S
C453        C454   1.402       .  A
C453        H458   1.084       .  S
C454        C455   1.408   1_445  A
C455        C456   1.397       .  A
C455        O459   1.372       .  S
C456        H460   1.083       .  S
O457        H462   0.992       .  S
O459        H463   0.990       .  S
C465        C466   1.404   1_565  A
C465        C470   1.398       .  A
C465        H475   1.084       .  S
C466        C471   1.481       .  S
C466        C467   1.408       .  A
C467        C468   1.400       .  A
C467        O472   1.373       .  S
C468        C469   1.405   1_545  A
C468        H473   1.084       .  S
C469        C470   1.410       .  A
C470        O474   1.372       .  S
C471        C476   1.409       .  A
C471        C480   1.403   1_545  A
O472        H488   0.992       .  S
O474        H485   0.992       .  S
C476        C477   1.400       .  A
C476        O481   1.371       .  S
C477        C478   1.404       .  A
C477        H482   1.084       .  S
C478        C479   1.410   1_545  A
C479        C480   1.397       .  A
C479        O483   1.372       .  S
C480        H484   1.084       .  S
O481        H486   0.992       .  S
O483        H487   0.991       .  S
C489        C490   1.405       .  A
C489        C494   1.402       .  A
C489        H499   1.083       .  S
C490        C495   1.487       .  S
C490        C491   1.409   1_565  A
C491        C492   1.397       .  A
C491        O496   1.372       .  S
C492        C493   1.406   1_545  A
C492        H497   1.083       .  S
C493        C494   1.412       .  A
C494        O498   1.372       .  S
C495        C500   1.410       .  A
C495        C504   1.406   1_565  A
O496        H512   0.991       .  S
O498        H509   0.991       .  S
C500        C501   1.402       .  A
C500        O505   1.372       .  S
C501        C502   1.403   1_565  A
C501        H506   1.084       .  S
C502        C503   1.406       .  A
C503        C504   1.399       .  A
C503        O507   1.372       .  S
C504        H508   1.083       .  S
O505        H510   0.992       .  S
O507        H511   0.992       .  S
C513        C514   1.399       .  A
C513        C518   1.399       .  A
C513        H523   1.084       .  S
C514        C519   1.473       .  S
C514        C515   1.404       .  A
C515        C516   1.400       .  A
C515        O520   1.371       .  S
C516        C517   1.407       .  A
C516        H521   1.083       .  S
C517        C518   1.415       .  A
C518        O522   1.372       .  S
C519        C524   1.405       .  A
C519        C528   1.398       .  A
O520        H536   0.991       .  S
O522        H533   0.992       .  S
C524        C525   1.401       .  A
C524        O529   1.372       .  S
C525        C526   1.408       .  A
C525        H530   1.083       .  S
C526        C527   1.414       .  A
C527        C528   1.398       .  A
C527        O531   1.371       .  S
C528        H532   1.084       .  S
O529        H534   0.992       .  S
O531        H535   0.991       .  S
C537        C538   1.401       .  A
C537        C542   1.398       .  A
C537        H547   1.084   1_545  S
C538        C543   1.477       .  S
C538        C539   1.406       .  A
C539        C540   1.400       .  A
C539        O544   1.372       .  S
C540        C541   1.408       .  A
C540        H545   1.083       .  S
C541        C542   1.411       .  A
C542        O546   1.371   1_545  S
C543        C548   1.405   1_545  A
C543        C552   1.403       .  A
O544        H560   0.991       .  S
O546        H557   0.991   1_565  S
C548        C549   1.396       .  A
C548        O553   1.372       .  S
C549        C550   1.405   1_565  A
C549        H554   1.083       .  S
C550        C551   1.413       .  A
C551        C552   1.402       .  A
C551        O555   1.372       .  S
C552        H556   1.084       .  S
O553        H558   0.993       .  S
O555        H559   0.990       .  S
C561        C562   1.403       .  A
C561        C566   1.401       .  A
C561        H571   1.084       .  S
C562        C567   1.481       .  S
C562        C563   1.407       .  A
C563        C564   1.399       .  A
C563        O568   1.373       .  S
C564        C565   1.404       .  A
C564        H569   1.084       .  S
C565        C566   1.411       .  A
C566        O570   1.372       .  S
C567        C572   1.409       .  A
C567        C576   1.403       .  A
O568        H584   0.992       .  S
O570        H581   0.992       .  S
C572        C573   1.397       .  A
C572        O577   1.372       .  S
C573        C574   1.403       .  A
C573        H578   1.084       .  S
C574        C575   1.410       .  A
C575        C576   1.399       .  A
C575        O579   1.372       .  S
C576        H580   1.084       .  S
O577        H582   0.991       .  S
O579        H583   0.992       .  S
C585        C586   1.403       .  A
C585        C590   1.400       .  A
C585        H595   1.083       .  S
C586        C591   1.483       .  S
C586        C587   1.409       .  A
C587        C588   1.396       .  A
C587        O592   1.372       .  S
C588        C589   1.405       .  A
C588        H593   1.083       .  S
C589        C590   1.413       .  A
C590        O594   1.372       .  S
C591        C596   1.410       .  A
C591        C600   1.405       .  A
O592        H608   0.992       .  S
O594        H605   0.992       .  S
C596        C597   1.400       .  A
C596        O601   1.372       .  S
C597        C598   1.402       .  A
C597        H602   1.084       .  S
C598        C599   1.407       .  A
C599        C600   1.397       .  A
C599        O603   1.372       .  S
C600        H604   1.084       .  S
O601        H606   0.992       .  S
O603        H607   0.992       .  S
C609        C610   1.401       .  A
C609        C614   1.398       .  A
C609        H619   1.084       .  S
C610        C615   1.476       .  S
C610        C611   1.407   1_655  A
C611        C612   1.398       .  A
C611        O616   1.372       .  S
C612        C613   1.406   1_455  A
C612        H617   1.083       .  S
C613        C614   1.412       .  A
C614        O618   1.372       .  S
C615        C620   1.406       .  A
C615        C624   1.402   1_655  A
O616        H632   0.991       .  S
O618        H629   0.991       .  S
C620        C621   1.398       .  A
C620        O625   1.372       .  S
C621        C622   1.406       .  A
C621        H626   1.083       .  S
C622        C623   1.412   1_655  A
C623        C624   1.399       .  A
C623        O627   1.372       .  S
C624        H628   1.084       .  S
O625        H630   0.992       .  S
O627        H631   0.991   1_455  S
C633        C634   1.402   1_565  A
C633        C638   1.399       .  A
C633        H643   1.084       .  S
C634        C639   1.474   1_655  S
C634        C635   1.405   1_655  A
C635        C636   1.397       .  A
C635        O640   1.372       .  S
C636        C637   1.404   1_445  A
C636        H641   1.084       .  S
C637        C638   1.410       .  A
C638        O642   1.372       .  S
C639        C644   1.404   1_545  A
C639        C648   1.402   1_455  A
O640        H656   0.991       .  S
O642        H653   0.991       .  S
C644        C645   1.395       .  A
C644        O649   1.372       .  S
C645        C646   1.407   1_565  A
C645        H650   1.083       .  S
C646        C647   1.413   1_455  A
C647        C648   1.401       .  A
C647        O651   1.371       .  S
C648        H652   1.084       .  S
O649        H654   0.991       .  S
O651        H655   0.991       .  S
C657        C658   1.403       .  A
C657        C662   1.398       .  A
C657        H667   1.083       .  S
C658        C663   1.481       .  S
C658        C659   1.408   1_655  A
C659        C660   1.398       .  A
C659        O664   1.372       .  S
C660        C661   1.405   1_455  A
C660        H665   1.083       .  S
C661        C662   1.412       .  A
C662        O666   1.372       .  S
C663        C668   1.409       .  A
C663        C672   1.404   1_655  A
O664        H680   0.992       .  S
O666        H677   0.993       .  S
C668        C669   1.399       .  A
C668        O673   1.372       .  S
C669        C670   1.402       .  A
C669        H674   1.084       .  S
C670        C671   1.409   1_655  A
C671        C672   1.398       .  A
C671        O675   1.372       .  S
C672        H676   1.084       .  S
O673        H678   0.993       .  S
O675        H679   0.991       .  S
C681        C682   1.403   1_455  A
C681        C686   1.397       .  A
C681        H691   1.084       .  S
C682        C687   1.480       .  S
C682        C683   1.409       .  A
C683        C684   1.400       .  A
C683        O688   1.373       .  S
C684        C685   1.403       .  A
C684        H689   1.084       .  S
C685        C686   1.407   1_655  A
C686        O690   1.372       .  S
C687        C692   1.408       .  A
C687        C696   1.403   1_655  A
O688        H704   0.992       .  S
O690        H701   0.991       .  S
C692        C693   1.397       .  A
C692        O697   1.371       .  S
C693        C694   1.405       .  A
C693        H698   1.083       .  S
C694        C695   1.411   1_655  A
C695        C696   1.399       .  A
C695        O699   1.372       .  S
C696        H700   1.084       .  S
O697        H702   0.991       .  S
O699        H703   0.991       .  S
C705        C706   1.400       .  A
C705        C710   1.398       .  A
C705        H715   1.083       .  S
C706        C711   1.480       .  S
C706        C707   1.409       .  A
C707        C708   1.399       .  A
C707        O712   1.372       .  S
C708        C709   1.405       .  A
C708        H713   1.083       .  S
C709        C710   1.415       .  A
C710        O714   1.372       .  S
C711        C716   1.409       .  A
C711        C720   1.402       .  A
O712        H728   0.993       .  S
O714        H725   0.991       .  S
C716        C717   1.402       .  A
C716        O721   1.372       .  S
C717        C718   1.404       .  A
C717        H722   1.084       .  S
C718        C719   1.408       .  A
C719        C720   1.396       .  A
C719        O723   1.372       .  S
C720        H724   1.084       .  S
O721        H726   0.992       .  S
O723        H727   0.991       .  S
C729        C730   1.404       .  A
C729        C734   1.400       .  A
C729        H739   1.083       .  S
C730        C735   1.484   1_556  S
C730        C731   1.408       .  A
C731        C732   1.400       .  A
C731        O736   1.372       .  S
C732        C733   1.405       .  A
C732        H737   1.083       .  S
C733        C734   1.411       .  A
C734        O738   1.372       .  S
C735        C740   1.407       .  A
C735        C744   1.405       .  A
O736        H752   0.991       .  S
O738        H749   0.991       .  S
C740        C741   1.398       .  A
C740        O745   1.372       .  S
C741        C742   1.406       .  A
C741        H746   1.084       .  S
C742        C743   1.410       .  A
C743        C744   1.403       .  A
C743        O747   1.371       .  S
C744        H748   1.083       .  S
O745        H750   0.993       .  S
O747        H751   0.991       .  S
C753        C754   1.402       .  A
C753        C758   1.399       .  A
C753        H763   1.084       .  S
C754        C759   1.476       .  S
C754        C755   1.404       .  A
C755        C756   1.397       .  A
C755        O760   1.372       .  S
C756        C757   1.408       .  A
C756        H761   1.083       .  S
C757        C758   1.412       .  A
C758        O762   1.371   1_565  S
C759        C764   1.405   1_565  A
C759        C768   1.403       .  A
O760        H776   0.991   1_565  S
O762        H773   0.991   1_545  S
C764        C765   1.396       .  A
C764        O769   1.372       .  S
C765        C766   1.404   1_545  A
C765        H770   1.084       .  S
C766        C767   1.411       .  A
C767        C768   1.400       .  A
C767        O771   1.372       .  S
C768        H772   1.084       .  S
O769        H774   0.993       .  S
O771        H775   0.991       .  S
C777        C778   1.403   1_565  A
C777        C782   1.400       .  A
C777        H787   1.084       .  S
C778        C783   1.485   1_556  S
C778        C779   1.409       .  A
C779        C780   1.402       .  A
C779        O784   1.373       .  S
C780        C781   1.405       .  A
C780        H785   1.084       .  S
C781        C782   1.411   1_545  A
C782        O786   1.372       .  S
C783        C788   1.408   1_545  A
C783        C792   1.404       .  A
O784        H800   0.991       .  S
O786        H797   0.991       .  S
C788        C789   1.399       .  A
C788        O793   1.371       .  S
C789        C790   1.405   1_565  A
C789        H794   1.083       .  S
C790        C791   1.412       .  A
C791        C792   1.401       .  A
C791        O795   1.372       .  S
C792        H796   1.084       .  S
O793        H798   0.991       .  S
O795        H799   0.991       .  S
C801        C802   1.403       .  A
C801        C806   1.400       .  A
C801        H811   1.083       .  S
C802        C807   1.482       .  S
C802        C803   1.407       .  A
C803        C804   1.398       .  A
C803        O808   1.372       .  S
C804        C805   1.406       .  A
C804        H809   1.083       .  S
C805        C806   1.413       .  A
C806        O810   1.372       .  S
C807        C812   1.409       .  A
C807        C816   1.406       .  A
O808        H824   0.991       .  S
O810        H821   0.991       .  S
C812        C813   1.399       .  A
C812        O817   1.372       .  S
C813        C814   1.400       .  A
C813        H818   1.084       .  S
C814        C815   1.405       .  A
C815        C816   1.400       .  A
C815        O819   1.372       .  S
C816        H820   1.084       .  S
O817        H822   0.992       .  S
O819        H823   0.991       .  S
C825        C826   1.404       .  A
C825        C830   1.400       .  A
C825        H835   1.084       .  S
C826        C831   1.482       .  S
C826        C827   1.408       .  A
C827        C828   1.398       .  A
C827        O832   1.373       .  S
C828        C829   1.404       .  A
C828        H833   1.084       .  S
C829        C830   1.412       .  A
C830        O834   1.372       .  S
C831        C836   1.409       .  A
C831        C840   1.403       .  A
O832        H848   0.992       .  S
O834        H845   0.991       .  S
C836        C837   1.398       .  A
C836        O841   1.371       .  S
C837        C838   1.403       .  A
C837        H842   1.084       .  S
C838        C839   1.410       .  A
C839        C840   1.399       .  A
C839        O843   1.372       .  S
C840        H844   1.084       .  S
O841        H846   0.992       .  S
O843        H847   0.991       .  S
C849        C850   1.400   1_655  A
C849        C854   1.399       .  A
C849        H859   1.084       .  S
C850        C855   1.476       .  S
C850        C851   1.406       .  A
C851        C852   1.400       .  A
C851        O856   1.372       .  S
C852        C853   1.406       .  A
C852        H857   1.083       .  S
C853        C854   1.414   1_455  A
C854        O858   1.372       .  S
C855        C860   1.405       .  A
C855        C864   1.401   1_455  A
O856        H872   0.992       .  S
O858        H869   0.991       .  S
C860        C861   1.398       .  A
C860        O865   1.372       .  S
C861        C862   1.407       .  A
C861        H866   1.083       .  S
C862        C863   1.413   1_455  A
C863        C864   1.399       .  A
C863        O867   1.371       .  S
C864        H868   1.084       .  S
O865        H870   0.992       .  S
O867        H871   0.991       .  S
C873        C874   1.404       .  A
C873        C878   1.401       .  A
C873        H883   1.083       .  S
C874        C879   1.483   1_554  S
C874        C875   1.407   1_655  A
C875        C876   1.398       .  A
C875        O880   1.372       .  S
C876        C877   1.407   1_455  A
C876        H881   1.083       .  S
C877        C878   1.412       .  A
C878        O882   1.371       .  S
C879        C884   1.410       .  A
C879        C888   1.405   1_655  A
O880        H896   0.991       .  S
O882        H893   0.991       .  S
C884        C885   1.401       .  A
C884        O889   1.372       .  S
C885        C886   1.401   1_655  A
C885        H890   1.084       .  S
C886        C887   1.405       .  A
C887        C888   1.399       .  A
C887        O891   1.372       .  S
C888        H892   1.084       .  S
O889        H894   0.993       .  S
O891        H895   0.991       .  S
C897        C898   1.399   1_565  A
C897        C902   1.398       .  A
C897        H907   1.084       .  S
C898        C903   1.475       .  S
C898        C899   1.405       .  A
C899        C900   1.401       .  A
C899        O904   1.372       .  S
C900        C901   1.408       .  A
C900        H905   1.083       .  S
C901        C902   1.414   1_545  A
C902        O906   1.371   1_655  S
C903        C908   1.403   1_645  A
C903        C912   1.402       .  A
O904        H920   0.992   1_655  S
O906        H917   0.991       .  S
C908        C909   1.396       .  A
C908        O913   1.372       .  S
C909        C910   1.406   1_465  A
C909        H914   1.083       .  S
C910        C911   1.414       .  A
C911        C912   1.403       .  A
C911        O915   1.371       .  S
C912        H916   1.084       .  S
O913        H918   0.992       .  S
O915        H919   0.991   1_545  S
C921        C922   1.403   1_465  A
C921        C926   1.399       .  A
C921        H931   1.083       .  S
C922        C927   1.483   1_554  S
C922        C923   1.410       .  A
C923        C924   1.400       .  A
C923        O928   1.372       .  S
C924        C925   1.404       .  A
C924        H929   1.084       .  S
C925        C926   1.410   1_645  A
C926        O930   1.372       .  S
C927        C932   1.409   1_655  A
C927        C936   1.403   1_545  A
O928        H944   0.991       .  S
O930        H941   0.991       .  S
C932        C933   1.401       .  A
C932        O937   1.372       .  S
C933        C934   1.405   1_445  A
C933        H938   1.084       .  S
C934        C935   1.410       .  A
C935        C936   1.398       .  A
C935        O939   1.371       .  S
C936        H940   1.084       .  S
O937        H942   0.993       .  S
O939        H943   0.991       .  S
C945        C946   1.404       .  A
C945        C950   1.398       .  A
C945        H955   1.083       .  S
C946        C951   1.484       .  S
C946        C947   1.412   1_655  A
C947        C948   1.399       .  A
C947        O952   1.372       .  S
C948        C949   1.401   1_455  A
C948        H953   1.084       .  S
C949        C950   1.407       .  A
C950        O954   1.372       .  S
C951        C956   1.410       .  A
C951        C960   1.402   1_655  A
O952        H968   0.991       .  S
O954        H965   0.991       .  S
C956        C957   1.402       .  A
C956        O961   1.372       .  S
C957        C958   1.406       .  A
C957        H962   1.083       .  S
C958        C959   1.413   1_655  A
C959        C960   1.397       .  A
C959        O963   1.372       .  S
C960        H964   1.084       .  S
O961        H966   0.992       .  S
O963        H967   0.992       .  S
C969        C970   1.404   1_455  A
C969        C974   1.398       .  A
C969        H979   1.083       .  S
C970        C975   1.479       .  S
C970        C971   1.408       .  A
C971        C972   1.396       .  A
C971        O976   1.372       .  S
C972        C973   1.403       .  A
C972        H977   1.084       .  S
C973        C974   1.408   1_655  A
C974        O978   1.372       .  S
C975        C980   1.407   1_655  A
C975        C984   1.404       .  A
O976        H992   0.992       .  S
O978        H989   0.992       .  S
C980        C981   1.396       .  A
C980        O985   1.372       .  S
C981        C982   1.405   1_455  A
C981        H986   1.084       .  S
C982        C983   1.410       .  A
C983        C984   1.399       .  A
C983        O987   1.372       .  S
C984        H988   1.084       .  S
O985        H990   0.993       .  S
O987        H991   0.992       .  S
