geometry optimzed in LAMMPS
_audit_creation_date              2020-11-30 
_audit_creation_method            'lammps2cif' 
_symmetry_space_group_name_H-M    'P1' 
_symmetry_Int_Tables_number       1 
_symmetry_cell_setting            triclinic 
loop_ 
_symmetry_equiv_pos_as_xyz 
  x,y,z 
_cell_length_a                    43.51735891704486 
_cell_length_b                    43.70530128476209 
_cell_length_c                    43.492412330004036 
_cell_angle_alpha                 90.27459000724856 
_cell_angle_beta                  90.31005397004738 
_cell_angle_gamma                 89.70340878037604 
loop_ 
_atom_site_label 
_atom_site_type_symbol 
_atom_site_fract_x 
_atom_site_fract_y 
_atom_site_fract_z 
_atom_site_charge 
O1          O  0.47571414  0.00030330  0.29448741    -0.74680
O2          O  0.47464568  0.50141594  0.20652118    -0.74720
O3          O  0.47533032  0.45712395  0.24988325    -0.74770
O4          O  0.47526190  0.04471903  0.25118217    -0.74820
O5          O  0.02632681  0.04452975  0.24996218    -0.74750
O6          O  0.02637024  0.45696770  0.25034611    -0.74730
O7          O  0.02583603  0.00041154  0.20607291    -0.74710
O8          O  0.02694740  0.50128477  0.29416739    -0.74770
Ni9        Ni  0.47340859  0.50090568  0.25052257     1.25410
Ni10       Ni  0.02817207  0.50076848  0.25009932     1.25360
C11         C  0.00149706  0.00085220  0.30877883     0.87490
C12         C  0.99997962  0.50117949  0.19170256     0.87430
C13         C  0.50090632  0.44242484  0.25012811     0.87450
C14         C  0.50081452  0.05919882  0.25080480     0.87630
O15         O  0.02282204  0.25087014  0.29606643    -0.74680
O16         O  0.02008282  0.24968103  0.20815395    -0.74720
O17         O  0.02135470  0.29423031  0.25174306    -0.74770
O18         O  0.02125134  0.20666435  0.25232107    -0.74820
O19         O  0.47018831  0.20706997  0.25393269    -0.74750
O20         O  0.47032863  0.29460877  0.25252048    -0.74730
O21         O  0.46889450  0.24994671  0.20917991    -0.74710
O22         O  0.47159970  0.25201268  0.29735895    -0.74770
Ni23       Ni  0.02318552  0.25038299  0.25204307     1.25410
Ni24       Ni  0.46842214  0.25090467  0.25332004     1.25360
C25         C  0.49767640  0.25186133  0.31117572     0.87490
C26         C  0.49412442  0.24947615  0.19414130     0.87430
C27         C  0.49582492  0.30903766  0.25201050     0.87450
C28         C  0.49565832  0.19230154  0.25289650     0.87630
O29         O  0.22533580  0.00088356  0.29286363    -0.74680
O30         O  0.22768666  0.50040502  0.20508155    -0.74720
O31         O  0.22627936  0.45681343  0.24898010    -0.74770
O32         O  0.22706272  0.04453812  0.24887916    -0.74820
O33         O  0.27806892  0.04392824  0.25078456    -0.74750
O34         O  0.27736107  0.45642363  0.25079996    -0.74730
O35         O  0.27902918  0.99987719  0.20676347    -0.74710
O36         O  0.27610311  0.50038319  0.29490041    -0.74770
Ni37       Ni  0.22467141  0.50069362  0.24890982     1.25410
Ni38       Ni  0.27934149  0.50014111  0.25088277     1.25360
C39         C  0.25004902  0.50068903  0.30857409     0.87490
C40         C  0.25362826  0.49988354  0.19132294     0.87430
C41         C  0.25182032  0.44206864  0.24993403     0.87450
C42         C  0.25272458  0.05885520  0.24962269     0.87630
O43         O  0.27422143  0.25095477  0.29090571    -0.74680
O44         O  0.27429338  0.25074829  0.20286162    -0.74720
O45         O  0.27400012  0.29461790  0.24692968    -0.74770
O46         O  0.27423567  0.20687268  0.24692282    -0.74820
O47         O  0.22320337  0.20712778  0.24692701    -0.74750
O48         O  0.22288289  0.29460726  0.24595679    -0.74730
O49         O  0.22299895  0.25005956  0.20244303    -0.74710
O50         O  0.22319957  0.25156114  0.29030993    -0.74770
Ni51       Ni  0.27603345  0.25078043  0.24688286     1.25410
Ni52       Ni  0.22127472  0.25085147  0.24638774     1.25360
C53         C  0.24859350  0.25129892  0.30528401     0.87490
C54         C  0.24867441  0.25037194  0.18827137     0.87430
C55         C  0.24832822  0.30915379  0.24640266     0.87450
C56         C  0.24866647  0.19237459  0.24724381     0.87630
O57         O  0.00091979  0.47330466  0.45649439    -0.74680
O58         O  0.50230203  0.47440659  0.04445818    -0.74720
O59         O  0.45762107  0.47305679  0.50079621    -0.74770
O60         O  0.04541365  0.47482162  0.00017408    -0.74820
O61         O  0.04393882  0.02575688  0.50057042    -0.74750
O62         O  0.45691386  0.02432111  0.99950782    -0.74730
O63         O  0.00034360  0.02575457  0.04412779    -0.74710
O64         O  0.50044937  0.02423875  0.45600461    -0.74770
Ni65       Ni  0.00153228  0.47208952  0.50049906     1.25410
Ni66       Ni  0.00068594  0.02698783  0.00005440     1.25360
C67         C  0.00052172  0.99854036  0.44167684     0.87490
C68         C  0.50175717  0.00040896  0.05874118     0.87430
C69         C  0.44235266  0.49813560  0.49999479     0.87450
C70         C  0.05912072  0.50062829  0.50027120     0.87630
O71         O  0.50234705  0.22396115  0.45820449    -0.74680
O72         O  0.50032854  0.22208652  0.04614877    -0.74720
O73         O  0.45729082  0.22201124  0.50074825    -0.74770
O74         O  0.04547428  0.22414811  0.00320323    -0.74820
O75         O  0.04393642  0.27520171  0.50431952    -0.74750
O76         O  0.45575894  0.27299205  0.00268063    -0.74730
O77         O  0.49909706  0.27310100  0.04747914    -0.74710
O78         O  0.50037254  0.27487658  0.45930781    -0.74770
Ni79       Ni  0.50142654  0.22124690  0.50208170     1.25410
Ni80       Ni  0.49975777  0.27586784  0.00350017     1.25360
C81         C  0.50171582  0.24963644  0.44418286     0.87490
C82         C  0.49952621  0.24727602  0.06130524     0.87430
C83         C  0.44202454  0.24716146  0.50119961     0.87450
C84         C  0.05914849  0.25003529  0.50382526     0.87630
O85         O  0.29353463  0.02605288  0.50007350    -0.74680
O86         O  0.20638627  0.02417591  0.00034084    -0.74720
O87         O  0.25034791  0.02515966  0.04416532    -0.74770
O88         O  0.24938562  0.02537454  0.45620350    -0.74820
O89         O  0.25084957  0.47429568  0.45587213    -0.74750
O90         O  0.25179682  0.47408923  0.04390413    -0.74730
O91         O  0.20724080  0.47336219  0.50010372    -0.74710
O92         O  0.29500940  0.47517827  0.99971291    -0.74770
Ni93       Ni  0.25008963  0.02704125  0.00020322     1.25410
Ni94       Ni  0.25117597  0.47242059  0.49987589     1.25360
C95         C  0.30881191  0.50097867  0.49984760     0.87490
C96         C  0.19216001  0.49848479  0.00046419     0.87430
C97         C  0.25091339  0.49961351  0.05843773     0.87450
C98         C  0.25017197  0.49987382  0.44167293     0.87630
O99         O  0.25040771  0.22474300  0.45209499    -0.74680
O100        O  0.24971534  0.22302857  0.04003424    -0.74720
O101        O  0.20583704  0.22471078  0.49565634    -0.74770
O102        O  0.29420524  0.22312312  0.99658144    -0.74820
O103        O  0.29469621  0.27409486  0.49883969    -0.74750
O104        O  0.20648554  0.27576176  0.99671211    -0.74730
O105        O  0.24975804  0.27389271  0.04147289    -0.74710
O106        O  0.25175269  0.27580270  0.45344352    -0.74770
Ni107      Ni  0.25001351  0.22208589  0.49600506     1.25410
Ni108      Ni  0.25068276  0.27670739  0.99757497     1.25360
C109        C  0.25147717  0.25054405  0.43838685     0.87490
C110        C  0.24940612  0.24810077  0.05537407     0.87430
C111        C  0.19168467  0.25049553  0.49646755     0.87450
C112        C  0.30896103  0.24838744  0.49838760     0.87630
C113        C  0.39178646  0.26415324  0.02199942    -0.20560
C114        C  0.40801035  0.24655712  0.50037713    -0.07130
C115        C  0.39151457  0.22932394  0.47823408     0.13740
C116        C  0.35919837  0.23000709  0.47842275    -0.20620
C117        C  0.34298007  0.24788542  0.49983232    -0.07130
C118        C  0.35949519  0.26487778  0.02216718     0.13730
C119        C  0.34322040  0.28285791  0.04694277    -0.23970
H120        H  0.40449939  0.27712810  0.03910657     0.15020
H121        H  0.34649939  0.21697881  0.46136647     0.15040
C122        C  0.40784604  0.21125770  0.45358350    -0.23910
H123        H  0.35968712  0.29322440  0.06353274     0.05260
H124        H  0.32775271  0.26753715  0.05995293     0.08480
H125        H  0.32957503  0.30171434  0.03659385     0.08480
H126        H  0.42176460  0.19269236  0.46411268     0.08470
H127        H  0.42307744  0.22660412  0.44032687     0.08470
H128        H  0.39140415  0.20052875  0.43720645     0.05240
C129        C  0.10717694  0.24704278  0.47418700    -0.20560
C130        C  0.09300966  0.25083818  0.50281232    -0.07130
C131        C  0.11140206  0.25520776  0.02937886     0.13740
C132        C  0.14359939  0.25513937  0.02660825    -0.20620
C133        C  0.15774486  0.25105980  0.49795887    -0.07130
C134        C  0.13930706  0.24730623  0.47144961     0.13730
C135        C  0.15352553  0.24413881  0.44024514    -0.23970
H136        H  0.09298820  0.24409216  0.45383401     0.15020
H137        H  0.15777162  0.25812036  0.04698635     0.15040
C138        C  0.09790933  0.25969628  0.06090069    -0.23910
H139        H  0.13592302  0.24161279  0.42182462     0.05260
H140        H  0.16864363  0.22361084  0.43976682     0.08480
H141        H  0.16714915  0.26495210  0.43538224     0.08480
H142        H  0.10600628  0.24105916  0.07624289     0.08470
H143        H  0.07244968  0.25970396  0.06075752     0.08470
H144        H  0.10561845  0.28195412  0.07053937     0.05240
C145        C  0.39327034  0.02642160  0.00396154    -0.20560
C146        C  0.40816674  0.49793321  0.49982428    -0.07130
C147        C  0.39053768  0.47105284  0.49535453     0.13740
C148        C  0.35840301  0.47317825  0.49533942    -0.20620
C149        C  0.34299578  0.50122355  0.49968128    -0.07130
C150        C  0.36112354  0.02846781  0.00395837     0.13730
C151        C  0.34670460  0.05958606  0.00886388    -0.23970
H152        H  0.40643563  0.04713535  0.00743862     0.15020
H153        H  0.34520792  0.45249256  0.49180990     0.15040
C154        C  0.40489835  0.43993930  0.49024938    -0.23910
H155        H  0.36421867  0.07768541  0.01238929     0.05260
H156        H  0.33201164  0.05932661  0.02964998     0.08480
H157        H  0.33254804  0.06584286  0.48837876     0.08480
H158        H  0.41858676  0.43308942  0.01081643     0.08470
H159        H  0.41982152  0.44038079  0.46963718     0.08470
H160        H  0.38735375  0.42194440  0.48633499     0.05240
C161        C  0.14246798  0.02350210  0.48808215    -0.20560
C162        C  0.15803303  0.49821523  0.50064118    -0.07130
C163        C  0.14095396  0.47398765  0.01340738     0.13740
C164        C  0.10880178  0.47576395  0.01303458    -0.20620
C165        C  0.09311445  0.50100798  0.50037637    -0.07130
C166        C  0.11032381  0.02528049  0.48771052     0.13730
C167        C  0.09528745  0.05277496  0.47297559    -0.23970
H168        H  0.15556225  0.04199228  0.47816002     0.15020
H169        H  0.09568721  0.45730235  0.02298981     0.15040
C170        C  0.15599926  0.44656194  0.02823471    -0.23910
H171        H  0.11243689  0.06841153  0.46274167     0.05260
H172        H  0.08238568  0.06613250  0.49045880     0.08480
H173        H  0.07951910  0.04526780  0.45427761     0.08480
H174        H  0.17180801  0.45416001  0.04685830     0.08470
H175        H  0.16886049  0.43311795  0.01078958     0.08470
H176        H  0.13885580  0.43099230  0.03858201     0.05240
C177        C  0.23925806  0.22365075  0.13910857    -0.20560
C178        C  0.24873405  0.25013601  0.15453237    -0.07130
C179        C  0.25799900  0.27586532  0.13767437     0.13740
C180        C  0.25794301  0.27438659  0.10546769    -0.20620
C181        C  0.24894429  0.24768597  0.08960484    -0.07130
C182        C  0.23940093  0.22188675  0.10686081     0.13730
C183        C  0.22882951  0.19254458  0.09189109    -0.23970
H184        H  0.23203855  0.20410356  0.15247312     0.15020
H185        H  0.26520369  0.29426014  0.09265965     0.15040
C186        C  0.26728317  0.30509223  0.15367198    -0.23910
H187        H  0.22098675  0.17562128  0.10909513     0.05260
H188        H  0.24806459  0.18180509  0.07904441     0.08480
H189        H  0.20923914  0.19727099  0.07612121     0.08480
H190        H  0.28766346  0.30087753  0.16853610     0.08470
H191        H  0.24804025  0.31360675  0.16807568     0.08470
H192        H  0.27323021  0.32328769  0.13701958     0.05240
C193        C  0.22353416  0.24687146  0.38931534    -0.20560
C194        C  0.25144308  0.25108236  0.40460857    -0.07130
C195        C  0.27849697  0.25508932  0.38757915     0.13740
C196        C  0.27682094  0.25515867  0.35529844    -0.20620
C197        C  0.24859666  0.25135299  0.33959834    -0.07130
C198        C  0.22146671  0.24723146  0.35717518     0.13730
C199        C  0.19010269  0.24286807  0.34286355    -0.23970
H200        H  0.20316813  0.24321446  0.40267260     0.15020
H201        H  0.29777088  0.25819796  0.34236031     0.15040
C202        C  0.30911979  0.25861942  0.40348566    -0.23910
H203        H  0.17203447  0.23948243  0.36045649     0.05260
H204        H  0.19017389  0.22228688  0.32779846     0.08480
H205        H  0.18351030  0.26348018  0.32949684     0.08480
H206        H  0.31398112  0.23807045  0.41764036     0.08470
H207        H  0.30871350  0.27914846  0.41861278     0.08470
H208        H  0.32813268  0.26124018  0.38678405     0.05240
C209        C  0.22898161  0.01254585  0.14150943    -0.20560
C210        C  0.25400051  0.49964931  0.15716021    -0.07130
C211        C  0.27810834  0.48617085  0.13981142     0.13740
C212        C  0.27620743  0.48616040  0.10755514    -0.20620
C213        C  0.25123486  0.49963287  0.09224473    -0.07130
C214        C  0.22740224  0.01278693  0.10930617     0.13730
C215        C  0.19948228  0.02621005  0.09359807    -0.23970
H216        H  0.21034418  0.02270970  0.15452790     0.15020
H217        H  0.29452623  0.47593009  0.09411827     0.15040
C218        C  0.30552572  0.47107502  0.15483572    -0.23910
H219        H  0.18220213  0.03448242  0.11044567     0.05260
H220        H  0.18842983  0.00855204  0.07885069     0.08480
H221        H  0.20623838  0.04591318  0.07918216     0.08480
H222        H  0.29776250  0.45282564  0.17063794     0.08470
H223        H  0.31913430  0.48832243  0.16774854     0.08470
H224        H  0.32106356  0.46037416  0.13764098     0.05240
C225        C  0.27689066  0.49642145  0.35917298    -0.20880
C226        C  0.24906084  0.50061389  0.34291820    -0.07130
C227        C  0.22161007  0.00465292  0.35995331     0.13740
C228        C  0.22279760  0.00439796  0.39222585    -0.20620
C229        C  0.25039790  0.49999792  0.40795271    -0.07130
C230        C  0.27783065  0.49604694  0.39141958     0.13730
C231        C  0.30812388  0.49182399  0.40788750    -0.23970
H232        H  0.29815422  0.49331630  0.34668098     0.15020
H233        H  0.20190530  0.00749372  0.40538667     0.15040
C234        C  0.19067208  0.00945926  0.34486010    -0.23910
H235        H  0.32749782  0.48931186  0.39153423     0.05260
H236        H  0.30737173  0.47096664  0.42233134     0.08480
H237        H  0.31284354  0.01198387  0.42289949     0.08480
H238        H  0.18431790  0.48908012  0.33090362     0.08470
H239        H  0.19115295  0.03021359  0.33025482     0.08470
H240        H  0.17212107  0.01280362  0.36201845     0.05240
C241        C  0.27388717  0.35795332  0.26020994    -0.20560
C242        C  0.24839706  0.34318394  0.24701543    -0.07130
C243        C  0.22403450  0.36122216  0.23492643     0.13740
C244        C  0.22602820  0.39325730  0.23631808    -0.20620
C245        C  0.25156418  0.40802712  0.24944686    -0.07130
C246        C  0.27580801  0.38997084  0.26175651     0.13730
C247        C  0.30345486  0.40392459  0.27739608    -0.23970
H248        H  0.29241900  0.34429437  0.26981299     0.15020
H249        H  0.20748259  0.40691767  0.22674727     0.15040
C250        C  0.19610713  0.34722378  0.21985607    -0.23910
H251        H  0.31891335  0.38622481  0.28737663     0.05260
H252        H  0.29592448  0.41918321  0.29644019     0.08480
H253        H  0.31713427  0.41702361  0.26055591     0.08480
H254        H  0.18278039  0.33416177  0.23700896     0.08470
H255        H  0.20323489  0.33190034  0.20072819     0.08470
H256        H  0.18045350  0.36489764  0.21013666     0.05240
C257        C  0.22457159  0.10836014  0.25386640    -0.20560
C258        C  0.25266523  0.09305214  0.24919563    -0.07130
C259        C  0.27936862  0.11079234  0.24391101     0.13740
C260        C  0.27700741  0.14286044  0.24337336    -0.20620
C261        C  0.24888227  0.15816977  0.24795473    -0.07130
C262        C  0.22220842  0.14041029  0.25338453     0.13730
C263        C  0.19103171  0.15456113  0.25911151    -0.23970
H264        H  0.20405806  0.09512447  0.25811030     0.15020
H265        H  0.29752848  0.15609235  0.23916080     0.15040
C266        C  0.31053683  0.09656914  0.23836004    -0.23910
H267        H  0.17327882  0.13703752  0.26378080     0.05260
H268        H  0.18330244  0.16747112  0.23853518     0.08480
H269        H  0.19209799  0.16994404  0.27948032     0.08480
H270        H  0.30952879  0.08114257  0.21802489     0.08470
H271        H  0.31812343  0.08366285  0.25899051     0.08470
H272        H  0.32834467  0.11405643  0.23375907     0.05240
C273        C  0.47602358  0.26506248  0.10983759    -0.20560
C274        C  0.49827052  0.24675582  0.09524876    -0.07130
C275        C  0.01844119  0.22871865  0.11339656     0.13740
C276        C  0.01588204  0.22974795  0.14550096    -0.20620
C277        C  0.49380715  0.24817953  0.16011768    -0.07130
C278        C  0.47331506  0.26582038  0.14201604     0.13730
C279        C  0.44924286  0.28620172  0.15636966    -0.23970
H280        H  0.46048961  0.27872141  0.09589307     0.15020
H281        H  0.03160723  0.21617096  0.15933051     0.15040
C282        C  0.04377640  0.20904458  0.10021002    -0.23910
H283        H  0.43624944  0.29939184  0.13877242     0.05260
H284        H  0.46030370  0.30279121  0.17231438     0.08480
H285        H  0.43245534  0.27216005  0.16914348     0.08480
H286        H  0.06608366  0.21589978  0.11059112     0.08470
H287        H  0.04621307  0.21097402  0.07501965     0.08470
H288        H  0.03948066  0.18470385  0.10588913     0.05240
C289        C  0.01639336  0.22964028  0.35997454    -0.20560
C290        C  0.49894666  0.25221554  0.34508743    -0.07130
C291        C  0.48356999  0.27470849  0.36271298     0.13740
C292        C  0.48536043  0.27353189  0.39495300    -0.20620
C293        C  0.50184701  0.25020993  0.41003712    -0.07130
C294        C  0.01787683  0.22811396  0.39218820     0.13730
C295        C  0.03720514  0.20326502  0.40667539    -0.23970
H296        H  0.02848496  0.21271690  0.34623880     0.15020
H297        H  0.47334207  0.29066541  0.40846838     0.15040
C298        C  0.46604901  0.30046563  0.34760161    -0.23910
H299        H  0.04973362  0.18955357  0.38915086     0.05260
H300        H  0.02241207  0.18727045  0.41957827     0.08480
H301        H  0.05451195  0.21356110  0.42239303     0.08480
H302        H  0.44647842  0.29121892  0.33407335     0.08470
H303        H  0.48152417  0.31329437  0.33211656     0.08470
H304        H  0.45662214  0.31682043  0.36479788     0.05240
C305        C  0.02379077  0.48656109  0.14196979    -0.20560
C306        C  0.99969231  0.50142461  0.15755684    -0.07130
C307        C  0.47668886  0.01666855  0.14018735     0.13740
C308        C  0.47828814  0.01631439  0.10794286    -0.20620
C309        C  0.00193267  0.00075665  0.09261574    -0.07130
C310        C  0.02492633  0.48575155  0.10973213     0.13730
C311        C  0.05157881  0.47002648  0.09410996    -0.23970
H312        H  0.04172173  0.47519359  0.15508731     0.15020
H313        H  0.46066530  0.02783087  0.09452462     0.15040
C314        C  0.45067213  0.03396269  0.15522049    -0.23910
H315        H  0.06849637  0.46094718  0.11101177     0.05260
H316        H  0.06364533  0.48649424  0.07906872     0.08480
H317        H  0.04323162  0.45049805  0.08003936     0.08480
H318        H  0.45999950  0.05148583  0.17126928     0.08470
H319        H  0.43571459  0.01791361  0.16787556     0.08470
H320        H  0.43598906  0.04591217  0.13804670     0.05240
C321        C  0.48644878  0.47681633  0.35768374    -0.20560
C322        C  0.00171329  0.00053656  0.34264737    -0.07130
C323        C  0.01623543  0.02365871  0.36008798     0.13740
C324        C  0.01532959  0.02236018  0.39229889    -0.20620
C325        C  0.00058875  0.99828761  0.40755591    -0.07130
C326        C  0.48590642  0.47515220  0.38991167     0.13730
C327        C  0.46886488  0.44912681  0.40463559    -0.23970
H328        H  0.47516763  0.45928498  0.34404786     0.15020
H329        H  0.02647720  0.04016736  0.40566266     0.15040
C330        C  0.03185094  0.05020161  0.34480927    -0.23910
H331        H  0.45730314  0.43439696  0.38724764     0.05260
H332        H  0.45094743  0.45830555  0.42029981     0.08480
H333        H  0.48511798  0.43437525  0.41765422     0.08480
H334        H  0.01520247  0.06239951  0.32972378     0.08470
H335        H  0.05145728  0.04178866  0.33087512     0.08470
H336        H  0.04093665  0.06687766  0.36188664     0.05240
C337        C  0.02455410  0.35781786  0.24695817    -0.20560
C338        C  0.49622646  0.34321802  0.25156868    -0.07130
C339        C  0.46957805  0.36164484  0.25573128     0.13740
C340        C  0.47219808  0.39363793  0.25508831    -0.20620
C341        C  0.50052686  0.40823895  0.25047284    -0.07130
C342        C  0.02717450  0.38981828  0.24635923     0.13730
C343        C  0.05858198  0.40320707  0.24100920    -0.23970
H344        H  0.04506961  0.34406993  0.24366198     0.15020
H345        H  0.45168777  0.40738537  0.25842458     0.15040
C346        C  0.43816421  0.34829213  0.26118846    -0.23910
H347        H  0.07634466  0.38520391  0.23748066     0.05260
H348        H  0.06580756  0.41693224  0.26130929     0.08480
H349        H  0.05816890  0.41767167  0.22009249     0.08480
H350        H  0.43858636  0.33395781  0.28219812     0.08470
H351        H  0.43091189  0.33445899  0.24096862     0.08470
H352        H  0.42040437  0.36631336  0.26463772     0.05240
C353        C  0.02345968  0.14318297  0.26064963    -0.20560
C354        C  0.49602612  0.15821603  0.25239221    -0.07130
C355        C  0.47045656  0.14037693  0.24304820     0.13740
C356        C  0.47302825  0.10834044  0.24277290    -0.20620
C357        C  0.50042946  0.09329800  0.25117832    -0.07130
C358        C  0.02616497  0.11118082  0.26001466     0.13730
C359        C  0.05658800  0.09715700  0.26920759    -0.23970
H360        H  0.04314012  0.15661525  0.26776506     0.15020
H361        H  0.45337758  0.09491120  0.23556464     0.15040
C362        C  0.44054568  0.15456110  0.23251352    -0.23910
H363        H  0.07349282  0.11472946  0.27655085     0.05260
H364        H  0.06671356  0.08466255  0.24940075     0.08480
H365        H  0.05338033  0.08136525  0.28877919     0.08480
H366        H  0.44475532  0.17023247  0.21297555     0.08470
H367        H  0.42967213  0.16724993  0.25178703     0.08470
H368        H  0.42385197  0.13704248  0.22456113     0.05240
O369        O  0.47577478  0.00032488  0.79452876    -0.74680
O370        O  0.47462101  0.50141799  0.70653466    -0.74720
O371        O  0.47532784  0.45712306  0.74989486    -0.74770
O372        O  0.47527249  0.04471656  0.75120717    -0.74820
O373        O  0.02633570  0.04452794  0.74992396    -0.74750
O374        O  0.02636771  0.45696689  0.75033108    -0.74730
O375        O  0.02579237  0.00040375  0.70603240    -0.74710
O376        O  0.02696683  0.50128214  0.79415418    -0.74770
Ni377      Ni  0.47340629  0.50090501  0.75053669     1.25410
Ni378      Ni  0.02816939  0.50076773  0.75008532     1.25360
C379        C  0.00157816  0.00089808  0.80878197     0.87490
C380        C  0.99994722  0.50118464  0.69170297     0.87430
C381        C  0.50090393  0.44242382  0.75012634     0.87450
C382        C  0.50082419  0.05919657  0.75079896     0.87630
O383        O  0.02282083  0.25086753  0.79606607    -0.74680
O384        O  0.02008178  0.24967916  0.70815371    -0.74720
O385        O  0.02135373  0.29422817  0.75174305    -0.74770
O386        O  0.02124951  0.20666239  0.75232028    -0.74820
O387        O  0.47018662  0.20706686  0.75393183    -0.74750
O388        O  0.47032773  0.29460636  0.75252047    -0.74730
O389        O  0.46889352  0.24994448  0.70917933    -0.74710
O390        O  0.47159853  0.25200958  0.79735870    -0.74770
Ni391      Ni  0.02318418  0.25038078  0.75204273     1.25410
Ni392      Ni  0.46842091  0.25090197  0.75331960     1.25360
C393        C  0.49767530  0.25185856  0.81117547     0.87490
C394        C  0.49412359  0.24947430  0.69414088     0.87430
C395        C  0.49582397  0.30903549  0.75201052     0.87450
C396        C  0.49565691  0.19229887  0.75289584     0.87630
O397        O  0.22515744  0.00088104  0.79291116    -0.74680
O398        O  0.22767937  0.50041237  0.70509676    -0.74720
O399        O  0.22630287  0.45681302  0.74898872    -0.74770
O400        O  0.22684722  0.04454373  0.74891420    -0.74820
O401        O  0.27785479  0.04392131  0.75075279    -0.74750
O402        O  0.27738580  0.45642373  0.75077812    -0.74730
O403        O  0.27877568  0.99988074  0.70672614    -0.74710
O404        O  0.27615184  0.50037562  0.79488651    -0.74770
Ni405      Ni  0.22469310  0.50069296  0.74892618     1.25410
Ni406      Ni  0.27936429  0.50014106  0.75086581     1.25360
C407        C  0.25010526  0.50067729  0.80857500     0.87490
C408        C  0.25361164  0.49989509  0.69132129     0.87430
C409        C  0.25184489  0.44206883  0.74992595     0.87450
C410        C  0.25251435  0.05885475  0.74962351     0.87630
O411        O  0.27418381  0.25093982  0.79090313    -0.74680
O412        O  0.27425131  0.25072767  0.70286241    -0.74720
O413        O  0.27399287  0.29460292  0.74692574    -0.74770
O414        O  0.27415139  0.20685362  0.74692493    -0.74820
O415        O  0.22311908  0.20715297  0.74693098    -0.74750
O416        O  0.22287556  0.29462713  0.74595665    -0.74730
O417        O  0.22295609  0.25008100  0.70244331    -0.74710
O418        O  0.22316196  0.25158614  0.79031348    -0.74770
Ni419      Ni  0.27599088  0.25076135  0.74688200     1.25410
Ni420      Ni  0.22123189  0.25087600  0.74638987     1.25360
C421        C  0.24855829  0.25130388  0.80528430     0.87490
C422        C  0.24863272  0.25037209  0.68827193     0.87430
C423        C  0.24833021  0.30915616  0.74639746     0.87450
C424        C  0.24856842  0.19237785  0.74724716     0.87630
O425        O  0.00104100  0.47328767  0.95649307    -0.74680
O426        O  0.50218256  0.47442907  0.54445816    -0.74720
O427        O  0.45774408  0.47302518  0.00079456    -0.74770
O428        O  0.04529228  0.47483278  0.50017303    -0.74820
O429        O  0.04457365  0.02595795  0.00058945    -0.74750
O430        O  0.45632442  0.02386043  0.49948154    -0.74730
O431        O  0.99972876  0.02542793  0.54409627    -0.74710
O432        O  0.50105148  0.02458803  0.95601864    -0.74770
Ni433      Ni  0.00165483  0.47206900  0.00049826     1.25410
Ni434      Ni  0.00006444  0.02664613  0.50003002     1.25360
C435        C  0.00103272  0.99888411  0.94169757     0.87490
C436        C  0.50123016  0.00009667  0.55872319     0.87430
C437        C  0.44247096  0.49810089  0.99999488     0.87450
C438        C  0.05923835  0.50061906  0.00027612     0.87630
O439        O  0.50234677  0.22396102  0.95820487    -0.74680
O440        O  0.50032991  0.22208641  0.54614834    -0.74720
O441        O  0.45728991  0.22201111  0.00074810    -0.74770
O442        O  0.04547528  0.22414789  0.50320199    -0.74820
O443        O  0.04393525  0.27520195  0.00432049    -0.74750
O444        O  0.45575998  0.27299218  0.50268091    -0.74730
O445        O  0.49909852  0.27310089  0.54747889    -0.74710
O446        O  0.50037202  0.27487643  0.95930790    -0.74770
Ni447      Ni  0.50142564  0.22124692  0.00208215     1.25410
Ni448      Ni  0.49975884  0.27586783  0.50349995     1.25360
C449        C  0.50171558  0.24963622  0.94418304     0.87490
C450        C  0.49952752  0.24727586  0.56130490     0.87430
C451        C  0.44202357  0.24716131  0.00119926     0.87450
C452        C  0.05914736  0.25003557  0.00382691     0.87630
O453        O  0.29399286  0.02619244  0.00004547    -0.74680
O454        O  0.20589371  0.02429232  0.50028565    -0.74720
O455        O  0.24985173  0.02517289  0.54415027    -0.74770
O456        O  0.24977134  0.02536537  0.95621343    -0.74820
O457        O  0.25096424  0.47425619  0.95587290    -0.74750
O458        O  0.25168553  0.47412686  0.54390241    -0.74730
O459        O  0.20735406  0.47333386  0.00010423    -0.74710
O460        O  0.29489356  0.47522547  0.49971039    -0.74770
Ni461      Ni  0.24962978  0.02704398  0.50018920     1.25410
Ni462      Ni  0.25128989  0.47238207  0.99987715     1.25360
C463        C  0.30893076  0.50093003  0.99985003     0.87490
C464        C  0.19204177  0.49850980  0.50046261     0.87430
C465        C  0.25080254  0.49965035  0.55843737     0.87450
C466        C  0.25028852  0.49983430  0.94167347     0.87630
O467        O  0.25040401  0.22474206  0.95209467    -0.74680
O468        O  0.24971361  0.22302655  0.54003453    -0.74720
O469        O  0.20583596  0.22471109  0.99565827    -0.74770
O470        O  0.29420620  0.22312246  0.49658376    -0.74820
O471        O  0.29469523  0.27409558  0.99883624    -0.74750
O472        O  0.20648676  0.27576144  0.49671209    -0.74730
O473        O  0.24975681  0.27389068  0.54147463    -0.74710
O474        O  0.25174936  0.27580178  0.95344168    -0.74770
Ni475      Ni  0.25001251  0.22208639  0.99600486     1.25410
Ni476      Ni  0.25068386  0.27670685  0.49757682     1.25360
C477        C  0.25147200  0.25054273  0.93838572     0.87490
C478        C  0.24940267  0.24809834  0.55537505     0.87430
C479        C  0.19168348  0.25049581  0.99646884     0.87450
C480        C  0.30896007  0.24838814  0.99838468     0.87630
C481        C  0.39178774  0.26415377  0.52200019    -0.20560
C482        C  0.40800938  0.24655696  0.00037630    -0.07130
C483        C  0.39151391  0.22932441  0.97823251     0.13740
C484        C  0.35919769  0.23000821  0.97842015    -0.20620
C485        C  0.34297911  0.24788608  0.99982987    -0.07130
C486        C  0.35949648  0.26487804  0.52216863     0.13730
C487        C  0.34322208  0.28285886  0.54694397    -0.23970
H488        H  0.40450091  0.27712915  0.53910675     0.15020
H489        H  0.34649888  0.21698091  0.96136292     0.15040
C490        C  0.40784581  0.21125811  0.95358227    -0.23910
H491        H  0.35968905  0.29322577  0.56353340     0.05260
H492        H  0.32775457  0.26753847  0.55995479     0.08480
H493        H  0.32957659  0.30171504  0.53659474     0.08480
H494        H  0.42176378  0.19269249  0.96411176     0.08470
H495        H  0.42307783  0.22660438  0.94032619     0.08470
H496        H  0.39140421  0.20052948  0.93720471     0.05240
C497        C  0.10717541  0.24704297  0.97418908    -0.20560
C498        C  0.09300842  0.25083854  0.00281432    -0.07130
C499        C  0.11140317  0.25520729  0.52937696     0.13740
C500        C  0.14360047  0.25513893  0.52660649    -0.20620
C501        C  0.15774358  0.25106002  0.99796058    -0.07130
C502        C  0.13930537  0.24730626  0.97145161     0.13730
C503        C  0.15352307  0.24413812  0.94024723    -0.23970
H504        H  0.09298654  0.24409218  0.95383620     0.15020
H505        H  0.15777258  0.25811979  0.54698471     0.15040
C506        C  0.09791033  0.25969562  0.56089882    -0.23910
H507        H  0.13592037  0.24161219  0.92182685     0.05260
H508        H  0.16864028  0.22360950  0.93976953     0.08480
H509        H  0.16714685  0.26495126  0.93538411     0.08480
H510        H  0.10600723  0.24105844  0.57624097     0.08470
H511        H  0.07245067  0.25970328  0.56075565     0.08470
H512        H  0.10561938  0.28195343  0.57053765     0.05240
C513        C  0.39278155  0.02599653  0.50402670    -0.20560
C514        C  0.40828543  0.49789196  0.99982671    -0.07130
C515        C  0.39065954  0.47100945  0.99535599     0.13740
C516        C  0.35852417  0.47313110  0.99534175    -0.20620
C517        C  0.34311451  0.50117476  0.99968598    -0.07130
C518        C  0.36065003  0.02812637  0.50400862     0.13730
C519        C  0.34631598  0.05928681  0.50889737    -0.23970
H520        H  0.40598592  0.04668149  0.50752819     0.15020
H521        H  0.34533056  0.45244467  0.99181070     0.15040
C522        C  0.40502452  0.43989814  0.99024934    -0.23910
H523        H  0.36387740  0.07733956  0.51242869     0.05260
H524        H  0.33160919  0.05907653  0.52967422     0.08480
H525        H  0.33290176  0.06610850  0.98835788     0.08480
H526        H  0.41845846  0.43312904  0.51081732     0.08470
H527        H  0.41994681  0.44034230  0.96963667     0.08470
H528        H  0.38748222  0.42190095  0.98633532     0.05240
C529        C  0.14307414  0.02336156  0.98797835    -0.20560
C530        C  0.15815104  0.49819815  0.00064817    -0.07130
C531        C  0.14083880  0.47400225  0.51339996     0.13740
C532        C  0.10868619  0.47577379  0.51302540    -0.20620
C533        C  0.09323243  0.50100082  0.00038774    -0.07130
C534        C  0.11094237  0.02522823  0.98761758     0.13730
C535        C  0.09597796  0.05272207  0.97281080    -0.23970
H536        H  0.15620895  0.04179512  0.97800383     0.15020
H537        H  0.09557338  0.45731187  0.52298237     0.15040
C538        C  0.15588761  0.44657942  0.52822905    -0.23910
H539        H  0.11316629  0.06827520  0.96251379     0.05260
H540        H  0.08313167  0.06617157  0.99026399     0.08480
H541        H  0.08017195  0.04520559  0.95414888     0.08480
H542        H  0.17169311  0.45418058  0.54685414     0.08470
H543        H  0.16875319  0.43313777  0.51078529     0.08470
H544        H  0.13874594  0.43100666  0.53857458     0.05240
C545        C  0.23922649  0.22365073  0.63910702    -0.20560
C546        C  0.24869713  0.25013649  0.65453300    -0.07130
C547        C  0.25797539  0.27586261  0.63767732     0.13740
C548        C  0.25793056  0.27438277  0.60547078    -0.20620
C549        C  0.24893369  0.24768290  0.58960575    -0.07130
C550        C  0.23938321  0.22188468  0.60685938     0.13730
C551        C  0.22881976  0.19254102  0.59188707    -0.23970
H552        H  0.23200156  0.20410439  0.65246983     0.15020
H553        H  0.26519923  0.29425457  0.59266457     0.15040
C554        C  0.26726521  0.30508655  0.65367713    -0.23910
H555        H  0.22097262  0.17561757  0.60908893     0.05260
H556        H  0.24806049  0.18180306  0.57904753     0.08480
H557        H  0.20923448  0.19726497  0.57611016     0.08480
H558        H  0.28763924  0.30086484  0.66854791     0.08470
H559        H  0.24802090  0.31360836  0.66807440     0.08470
H560        H  0.27322444  0.32327937  0.63702628     0.05240
C561        C  0.22351973  0.24686646  0.88931996    -0.20560
C562        C  0.25143145  0.25108049  0.90460742    -0.07130
C563        C  0.27848095  0.25509170  0.88757239     0.13740
C564        C  0.27679715  0.25516389  0.85529205    -0.20620
C565        C  0.24856924  0.25135698  0.83959823    -0.07130
C566        C  0.22144456  0.24722970  0.85718040     0.13730
C567        C  0.19007874  0.24286160  0.84287454    -0.23970
H568        H  0.20315800  0.24320435  0.90268088     0.15020
H569        H  0.29774361  0.25820685  0.84234927     0.15040
C570        C  0.30910715  0.25862290  0.90347228    -0.23910
H571        H  0.17201535  0.23946769  0.86047069     0.05260
H572        H  0.19015214  0.22228390  0.82780458     0.08480
H573        H  0.18347839  0.26347502  0.82951370     0.08480
H574        H  0.31397346  0.23807325  0.91762450     0.08470
H575        H  0.30870275  0.27915078  0.91860104     0.08470
H576        H  0.32811596  0.26124636  0.88676648     0.05240
C577        C  0.22864548  0.01259326  0.64154758    -0.20560
C578        C  0.25395993  0.49967058  0.65715812    -0.07130
C579        C  0.27805514  0.48619639  0.63978921     0.13740
C580        C  0.27613043  0.48619215  0.60753447    -0.20620
C581        C  0.25114655  0.49966692  0.59224436    -0.07130
C582        C  0.22700246  0.01283715  0.60934768     0.13730
C583        C  0.19906668  0.02628914  0.59369527    -0.23970
H584        H  0.21003653  0.02276244  0.65460231     0.15020
H585        H  0.29443953  0.47596435  0.59408250     0.15040
C586        C  0.30548382  0.47109842  0.65479053    -0.23910
H587        H  0.18182647  0.03457485  0.61057718     0.05260
H588        H  0.18797044  0.00864495  0.57896454     0.08480
H589        H  0.20581656  0.04598824  0.57927048     0.08480
H590        H  0.29773281  0.45284505  0.67059419     0.08470
H591        H  0.31910061  0.48834361  0.66769759     0.08470
H592        H  0.32100989  0.46040223  0.63758227     0.05240
C593        C  0.27697166  0.49639899  0.85916042    -0.20880
C594        C  0.24913395  0.50059263  0.84291956    -0.07130
C595        C  0.22162059  0.00461488  0.86006289     0.13740
C596        C  0.22293425  0.00436516  0.89233749    -0.20620
C597        C  0.25050065  0.49995925  0.90795323    -0.07130
C598        C  0.27792631  0.49601591  0.89140675     0.13730
C599        C  0.30822702  0.49179208  0.90786021    -0.23970
H600        H  0.29822971  0.49330012  0.84665762     0.15020
H601        H  0.20209369  0.00746155  0.90557950     0.15040
C602        C  0.19063193  0.00941286  0.84507321    -0.23910
H603        H  0.32759381  0.48928575  0.89149764     0.05260
H604        H  0.30748310  0.47093116  0.92229940     0.08480
H605        H  0.31310311  0.01192870  0.92265853     0.08480
H606        H  0.18438642  0.48905147  0.83093229     0.08470
H607        H  0.19105625  0.03017177  0.83047206     0.08470
H608        H  0.17213785  0.01274096  0.86229631     0.05240
C609        C  0.27390801  0.35795111  0.76019369    -0.20560
C610        C  0.24841434  0.34318606  0.74700133    -0.07130
C611        C  0.22405452  0.36122844  0.73491157     0.13740
C612        C  0.22605261  0.39326246  0.73630359    -0.20620
C613        C  0.25158903  0.40802806  0.74943429    -0.07130
C614        C  0.27583168  0.38996894  0.76174221     0.13730
C615        C  0.30347790  0.40392082  0.77738432    -0.23970
H616        H  0.29243770  0.34428893  0.76979626     0.15020
H617        H  0.20750879  0.40692571  0.72673338     0.15040
C618        C  0.19612335  0.34723644  0.71984145    -0.23910
H619        H  0.31893545  0.38621964  0.78736378     0.05260
H620        H  0.29594667  0.41917795  0.79642934     0.08480
H621        H  0.31715799  0.41702170  0.76054622     0.08480
H622        H  0.18279014  0.33418257  0.73699553     0.08470
H623        H  0.20324697  0.33190752  0.70071659     0.08470
H624        H  0.18047608  0.36491344  0.71011766     0.05240
C625        C  0.22439450  0.10838295  0.75386262    -0.20560
C626        C  0.25247558  0.09305205  0.74919237    -0.07130
C627        C  0.27919450  0.11077141  0.74390822     0.13740
C628        C  0.27686127  0.14284038  0.74337372    -0.20620
C629        C  0.24875077  0.15817309  0.74795684    -0.07130
C630        C  0.22206016  0.14043618  0.75338376     0.13730
C631        C  0.19089607  0.15461482  0.75911072    -0.23970
H632        H  0.20386970  0.09516362  0.75810370     0.15020
H633        H  0.29739389  0.15605496  0.73916234     0.15040
C634        C  0.31035331  0.09652682  0.73835618    -0.23910
H635        H  0.17312700  0.13710681  0.76377755     0.05260
H636        H  0.18317965  0.16753379  0.73853536     0.08480
H637        H  0.19197558  0.16999507  0.77948090     0.08480
H638        H  0.30933547  0.08110429  0.71801841     0.08470
H639        H  0.31793110  0.08361380  0.75898561     0.08470
H640        H  0.32817432  0.11400132  0.73375745     0.05240
C641        C  0.47602429  0.26506207  0.60983711    -0.20560
C642        C  0.49827144  0.24675552  0.59524839    -0.07130
C643        C  0.01844173  0.22871807  0.61339627     0.13740
C644        C  0.01588197  0.22974687  0.64550063    -0.20620
C645        C  0.49380683  0.24817820  0.66011724    -0.07130
C646        C  0.47331523  0.26581951  0.64201554     0.13730
C647        C  0.44924306  0.28620091  0.65636913    -0.23970
H648        H  0.46049060  0.27872125  0.59589254     0.15020
H649        H  0.03160692  0.21616967  0.65933024     0.15040
C650        C  0.04377717  0.20904420  0.60020988    -0.23910
H651        H  0.43624999  0.29939138  0.63877191     0.05260
H652        H  0.46030390  0.30279008  0.67231419     0.08480
H653        H  0.43245526  0.27215925  0.66914260     0.08480
H654        H  0.06608429  0.21589940  0.61059130     0.08470
H655        H  0.04621416  0.21097385  0.57501955     0.08470
H656        H  0.03948144  0.18470340  0.60588872     0.05240
C657        C  0.01639289  0.22963870  0.85997479    -0.20560
C658        C  0.49894588  0.25221345  0.84508727    -0.07130
C659        C  0.48356972  0.27470701  0.86271251     0.13740
C660        C  0.48536047  0.27353115  0.89495260    -0.20620
C661        C  0.50184702  0.25020942  0.91003717    -0.07130
C662        C  0.01787674  0.22811315  0.89218852     0.13730
C663        C  0.03720526  0.20326458  0.90667606    -0.23970
H664        H  0.02848443  0.21271505  0.84623932     0.15020
H665        H  0.47334232  0.29066504  0.90846770     0.15040
C666        C  0.46604903  0.30046407  0.84760069    -0.23910
H667        H  0.04973376  0.18955292  0.88915171     0.05260
H668        H  0.02241235  0.18727014  0.91957928     0.08480
H669        H  0.05451208  0.21356105  0.92239345     0.08480
H670        H  0.44647833  0.29121735  0.83407260     0.08470
H671        H  0.48152434  0.31329233  0.83211537     0.08470
H672        H  0.45662239  0.31681930  0.86479666     0.05240
C673        C  0.02373068  0.48657585  0.64195424    -0.20560
C674        C  0.99964180  0.50143748  0.65755744    -0.07130
C675        C  0.47647797  0.01656960  0.64022874     0.13740
C676        C  0.47792076  0.01608149  0.60797785    -0.20620
C677        C  0.00151134  0.00049368  0.59259968    -0.07130
C678        C  0.02484743  0.48577152  0.60971583     0.13730
C679        C  0.05149120  0.47004902  0.59407599    -0.23970
H680        H  0.04166862  0.47520539  0.65505965     0.15020
H681        H  0.46023155  0.02754085  0.59459721     0.15040
C682        C  0.45056132  0.03396986  0.65531404    -0.23910
H683        H  0.06841893  0.46096803  0.61096673     0.05260
H684        H  0.06354848  0.48651906  0.57902982     0.08480
H685        H  0.04313661  0.45052208  0.58000777     0.08480
H686        H  0.45999628  0.05152867  0.67126019     0.08470
H687        H  0.43562009  0.01800206  0.66808939     0.08470
H688        H  0.43583251  0.04589340  0.63816100     0.05240
C689        C  0.48649878  0.47681460  0.85769160    -0.20560
C690        C  0.00185323  0.00068625  0.84265364    -0.07130
C691        C  0.01643356  0.02384977  0.85999186     0.13740
C692        C  0.01564695  0.02262721  0.89221125    -0.20620
C693        C  0.00096044  0.99859171  0.90757498    -0.07130
C694        C  0.48597784  0.47514708  0.88991979     0.13730
C695        C  0.46893562  0.44912744  0.90465296    -0.23970
H696        H  0.47520435  0.45928736  0.84406149     0.15020
H697        H  0.02685011  0.04045837  0.90549478     0.15040
C698        C  0.03198987  0.05035593  0.84459319    -0.23910
H699        H  0.45735660  0.43440358  0.88727146     0.05260
H700        H  0.45103205  0.45831247  0.92032940     0.08480
H701        H  0.48519109  0.43436864  0.91766031     0.08480
H702        H  0.01528777  0.06250736  0.82952816     0.08470
H703        H  0.05155523  0.04191014  0.83062189     0.08470
H704        H  0.04112297  0.06708046  0.86159620     0.05240
C705        C  0.02455287  0.35781629  0.74695834    -0.20560
C706        C  0.49622537  0.34321608  0.75156852    -0.07130
C707        C  0.46957679  0.36164280  0.75573039     0.13740
C708        C  0.47219635  0.39363600  0.75508651    -0.20620
C709        C  0.50052492  0.40823754  0.75047100    -0.07130
C710        C  0.02717290  0.38981686  0.74635865     0.13730
C711        C  0.05858070  0.40320563  0.74101029    -0.23970
H712        H  0.04506861  0.34406849  0.74366304     0.15020
H713        H  0.45168566  0.40738305  0.75842187     0.15040
C714        C  0.43816313  0.34828982  0.76118777    -0.23910
H715        H  0.07634404  0.38520246  0.73748511     0.05260
H716        H  0.06580410  0.41693288  0.76130976     0.08480
H717        H  0.05816944  0.41766811  0.72009208     0.08480
H718        H  0.43858544  0.33395594  0.78219773     0.08470
H719        H  0.43091103  0.33445619  0.74096820     0.08470
H720        H  0.42040304  0.36631089  0.76463664     0.05240
C721        C  0.02346610  0.14318282  0.76063346    -0.20560
C722        C  0.49602648  0.15821318  0.75239198    -0.07130
C723        C  0.47045503  0.14037141  0.74305861     0.13740
C724        C  0.47302813  0.10833502  0.74278813    -0.20620
C725        C  0.50043693  0.09329557  0.75117390    -0.07130
C726        C  0.02617762  0.11118163  0.75998785     0.13730
C727        C  0.05661709  0.09716433  0.76913408    -0.23970
H728        H  0.04314948  0.15661686  0.76773695     0.15020
H729        H  0.45337437  0.09490358  0.73559269     0.15040
C730        C  0.44054241  0.15455242  0.73252502    -0.23910
H731        H  0.07352723  0.11473906  0.77645913     0.05260
H732        H  0.06671743  0.08467712  0.74930999     0.08480
H733        H  0.05344342  0.08136712  0.78870347     0.08480
H734        H  0.44474948  0.17021923  0.71298270     0.08470
H735        H  0.42967097  0.16724552  0.75179677     0.08470
H736        H  0.42384837  0.13703159  0.72457827     0.05240
O737        O  0.47569785  0.50030751  0.29449953    -0.74680
O738        O  0.47470094  0.00142624  0.20650062    -0.74720
O739        O  0.47536242  0.95712516  0.24986230    -0.74770
O740        O  0.47523032  0.54471943  0.25119214    -0.74820
O741        O  0.02629445  0.54452950  0.24994570    -0.74750
O742        O  0.02640241  0.95696690  0.25036111    -0.74730
O743        O  0.02577926  0.50040858  0.20604864    -0.74710
O744        O  0.02696396  0.00128403  0.29417951    -0.74770
Ni745      Ni  0.47344130  0.00090651  0.25050618     1.25410
Ni746      Ni  0.02820558  0.00076828  0.25011698     1.25360
C747        C  0.00148614  0.50085334  0.30877909     0.87490
C748        C  0.00004987  0.00119344  0.19170555     0.87430
C749        C  0.50093768  0.94242512  0.25012485     0.87450
C750        C  0.50078312  0.55919892  0.25080268     0.87630
O751        O  0.02282240  0.75086497  0.29606569    -0.74680
O752        O  0.02008350  0.74967699  0.20815322    -0.74720
O753        O  0.02136689  0.79422600  0.25174261    -0.74770
O754        O  0.02124030  0.70665989  0.25232007    -0.74820
O755        O  0.47017727  0.70707658  0.25393139    -0.74750
O756        O  0.47034091  0.79461513  0.25251955    -0.74730
O757        O  0.46889521  0.74995387  0.20917894    -0.74710
O758        O  0.47160029  0.75201898  0.29735787    -0.74770
Ni759      Ni  0.02318609  0.75037795  0.25204232     1.25410
Ni760      Ni  0.46842281  0.75091182  0.25331894     1.25360
C761        C  0.49767685  0.75186186  0.31117489     0.87490
C762        C  0.49412510  0.74947779  0.19414043     0.87430
C763        C  0.49584026  0.80903871  0.25201010     0.87450
C764        C  0.49564404  0.69230259  0.25289580     0.87630
O765        O  0.22511490  0.50088631  0.29287334    -0.74680
O766        O  0.22792087  0.00040773  0.20507737    -0.74720
O767        O  0.22650874  0.95681818  0.24897122    -0.74770
O768        O  0.22683471  0.54454266  0.24888155    -0.74820
O769        O  0.27784081  0.54392124  0.25077043    -0.74750
O770        O  0.27759000  0.95642207  0.25081206    -0.74730
O771        O  0.27879549  0.49987296  0.20674739    -0.74710
O772        O  0.27632281  0.00038509  0.29491619    -0.74770
Ni773      Ni  0.22490071  0.00069389  0.24890378     1.25410
Ni774      Ni  0.27957040  0.00014405  0.25089751     1.25360
C775        C  0.25026153  0.00068916  0.30857653     0.87490
C776        C  0.25386732  0.99988328  0.19132981     0.87430
C777        C  0.25204686  0.94207015  0.24993104     0.87450
C778        C  0.25250060  0.55885425  0.24961543     0.87630
O779        O  0.27421888  0.75092021  0.29090863    -0.74680
O780        O  0.27429129  0.75071448  0.20286477    -0.74720
O781        O  0.27407024  0.79458448  0.24693371    -0.74770
O782        O  0.27415997  0.70684048  0.24692491    -0.74820
O783        O  0.22312745  0.70716881  0.24692998    -0.74750
O784        O  0.22295287  0.79464970  0.24596151    -0.74730
O785        O  0.22299543  0.75010340  0.20244607    -0.74710
O786        O  0.22319729  0.75160355  0.29031366    -0.74770
Ni787      Ni  0.27603070  0.75074375  0.24688613     1.25410
Ni788      Ni  0.22127162  0.75089706  0.24639147     1.25360
C789        C  0.24859134  0.75130214  0.30528700     0.87490
C790        C  0.24867181  0.75037658  0.18827443     0.87430
C791        C  0.24842038  0.80915848  0.24640498     0.87450
C792        C  0.24856942  0.69237905  0.24724438     0.87630
O793        O  0.00092849  0.97330434  0.45649330    -0.74680
O794        O  0.50270188  0.97475201  0.04446377    -0.74720
O795        O  0.45763930  0.97305641  0.50080465    -0.74770
O796        O  0.04580393  0.97503041  0.00018281    -0.74820
O797        O  0.04392098  0.52575664  0.50058046    -0.74750
O798        O  0.45642018  0.52382923  0.99947543    -0.74730
O799        O  0.99981219  0.52540352  0.04409870    -0.74710
O800        O  0.50044018  0.52423907  0.45600588    -0.74770
Ni801      Ni  0.00155013  0.97208978  0.50049850     1.25410
Ni802      Ni  0.00015933  0.52662529  0.00003341     1.25360
C803        C  0.00051446  0.49854064  0.44167806     0.87490
C804        C  0.50130935  0.50007137  0.05872424     0.87430
C805        C  0.44237054  0.99813494  0.50000489     0.87450
C806        C  0.05913841  0.00062838  0.50025840     0.87630
O807        O  0.50234710  0.72396127  0.45820387    -0.74680
O808        O  0.50032855  0.72208669  0.04614813    -0.74720
O809        O  0.45729075  0.72201136  0.50074755    -0.74770
O810        O  0.04547430  0.72414820  0.00320272    -0.74820
O811        O  0.04393632  0.77520188  0.50431896    -0.74750
O812        O  0.45575903  0.77299222  0.00268003    -0.74730
O813        O  0.49909719  0.77310119  0.04747836    -0.74710
O814        O  0.50037256  0.77487670  0.45930719    -0.74770
Ni815      Ni  0.50142646  0.72124704  0.50208108     1.25410
Ni816      Ni  0.49975786  0.77586798  0.00349951     1.25360
C817        C  0.50171592  0.74963656  0.44418224     0.87490
C818        C  0.49952633  0.74727624  0.06130449     0.87430
C819        C  0.44202446  0.74716158  0.50119899     0.87450
C820        C  0.05914838  0.75003546  0.50382489     0.87630
O821        O  0.29351496  0.52605664  0.50005061    -0.74680
O822        O  0.20599791  0.52426799  0.00031150    -0.74720
O823        O  0.24997759  0.52513821  0.04415048    -0.74770
O824        O  0.24933444  0.52537949  0.45620450    -0.74820
O825        O  0.25090059  0.97429068  0.45587243    -0.74750
O826        O  0.25229712  0.97411471  0.04390915    -0.74730
O827        O  0.20726055  0.97335847  0.50007974    -0.74710
O828        O  0.29550832  0.97536484  0.99970244    -0.74770
Ni829      Ni  0.24973295  0.52700952  0.00019026     1.25410
Ni830      Ni  0.25119665  0.97241676  0.49987616     1.25360
C831        C  0.30883149  0.00097499  0.49987373     0.87490
C832        C  0.19259929  0.99836933  0.00047309     0.87430
C833        C  0.25132373  0.99963199  0.05844709     0.87450
C834        C  0.25024206  0.99986893  0.44167298     0.87630
O835        O  0.25040718  0.72474249  0.45209641    -0.74680
O836        O  0.24971548  0.72302929  0.04003683    -0.74720
O837        O  0.20583689  0.72471048  0.49565781    -0.74770
O838        O  0.29420527  0.72312319  0.99658358    -0.74820
O839        O  0.29469607  0.77409459  0.49884069    -0.74750
O840        O  0.20648566  0.77576193  0.99671378    -0.74730
O841        O  0.24975843  0.77389343  0.04147480    -0.74710
O842        O  0.25175246  0.77580220  0.45344479    -0.74770
Ni843      Ni  0.25001336  0.72208557  0.49600637     1.25410
Ni844      Ni  0.25068289  0.77670751  0.99757657     1.25360
C845        C  0.25147662  0.75054350  0.43838827     0.87490
C846        C  0.24940656  0.74810169  0.05537646     0.87430
C847        C  0.19168456  0.75049525  0.49646872     0.87450
C848        C  0.30896091  0.74838718  0.49838842     0.87630
C849        C  0.39178683  0.76415336  0.02199969    -0.20560
C850        C  0.40801027  0.74655721  0.50037679    -0.07130
C851        C  0.39151430  0.72932396  0.47823394     0.13740
C852        C  0.35919810  0.73000699  0.47842296    -0.20620
C853        C  0.34297998  0.74788525  0.49983274    -0.07130
C854        C  0.35949556  0.76487786  0.02216793     0.13730
C855        C  0.34322110  0.78285795  0.04694376    -0.23970
H856        H  0.40449999  0.77712818  0.03910668     0.15020
H857        H  0.34649898  0.71697868  0.46136681     0.15040
C858        C  0.40784558  0.71125776  0.45358320    -0.23910
H859        H  0.35968803  0.79322449  0.06353348     0.05260
H860        H  0.32775364  0.76753716  0.05995415     0.08480
H861        H  0.32957551  0.80171434  0.03659503     0.08480
H862        H  0.42176429  0.69269245  0.46411225     0.08470
H863        H  0.42307681  0.72660421  0.44032641     0.08470
H864        H  0.39140356  0.70052876  0.43720632     0.05240
C865        C  0.10717709  0.74704284  0.47418718    -0.20560
C866        C  0.09300953  0.75083832  0.50281233    -0.07130
C867        C  0.11140165  0.75520777  0.02937929     0.13740
C868        C  0.14359901  0.75513945  0.02660921    -0.20620
C869        C  0.15774475  0.75105960  0.49795964    -0.07130
C870        C  0.13930724  0.74730605  0.47145018     0.13730
C871        C  0.15352603  0.74413806  0.44024593    -0.23970
H872        H  0.09298856  0.74409217  0.45383404     0.15020
H873        H  0.15777092  0.75812039  0.04698754     0.15040
C874        C  0.09790844  0.75969612  0.06090092    -0.23910
H875        H  0.13592369  0.74161234  0.42182519     0.05260
H876        H  0.16864348  0.72360961  0.43976809     0.08480
H877        H  0.16715036  0.76495089  0.43538299     0.08480
H878        H  0.10600525  0.74105898  0.07624317     0.08470
H879        H  0.07244879  0.75970371  0.06075737     0.08470
H880        H  0.10561734  0.78195396  0.07053980     0.05240
C881        C  0.39287917  0.52595417  0.00401658    -0.20560
C882        C  0.40818490  0.99793172  0.49983993    -0.07130
C883        C  0.39055605  0.97105085  0.49537249     0.13740
C884        C  0.35842163  0.97317516  0.49536423    -0.20620
C885        C  0.34301467  0.00122016  0.49970818    -0.07130
C886        C  0.36074796  0.52808116  0.00399618     0.13730
C887        C  0.34641254  0.55923942  0.00889592    -0.23970
H888        H  0.40608116  0.54663973  0.00752388     0.15020
H889        H  0.34522661  0.95248913  0.49183644     0.15040
C890        C  0.40491649  0.93993818  0.49026108    -0.23910
H891        H  0.36397286  0.57729155  0.01243650     0.05260
H892        H  0.33170397  0.55902050  0.02967136     0.08480
H893        H  0.33253104  0.56584810  0.48836182     0.08480
H894        H  0.41912372  0.93358808  0.01088943     0.08470
H895        H  0.41983568  0.94038247  0.46964605     0.08470
H896        H  0.38737163  0.92194327  0.48634784     0.05240
C897        C  0.14245065  0.52350574  0.48811002    -0.20560
C898        C  0.15805148  0.99821098  0.50061106    -0.07130
C899        C  0.14135731  0.97391985  0.01338008     0.13740
C900        C  0.10920567  0.97577687  0.01301940    -0.20620
C901        C  0.09313235  0.00100713  0.50035761    -0.07130
C902        C  0.11030680  0.52528209  0.48773189     0.13730
C903        C  0.09527207  0.55277459  0.47299154    -0.23970
H904        H  0.15554558  0.54199624  0.47818931     0.15020
H905        H  0.09604816  0.95736854  0.02301630     0.15040
C906        C  0.15636053  0.94648923  0.02823744    -0.23910
H907        H  0.11242276  0.56841107  0.46275952     0.05260
H908        H  0.08236626  0.56613318  0.49047092     0.08480
H909        H  0.07950785  0.54526501  0.45429105     0.08480
H910        H  0.17216332  0.95408326  0.04686775     0.08470
H911        H  0.16922877  0.93302690  0.01081110     0.08470
H912        H  0.13918946  0.93094516  0.03857805     0.05240
C913        C  0.23925726  0.72365369  0.13911205    -0.20560
C914        C  0.24873225  0.75013952  0.15453533    -0.07130
C915        C  0.25800055  0.77586720  0.13767680     0.13740
C916        C  0.25794472  0.77438792  0.10547003    -0.20620
C917        C  0.24894498  0.74768740  0.08960753    -0.07130
C918        C  0.23940158  0.72188857  0.10686421     0.13730
C919        C  0.22883205  0.69254547  0.09189510    -0.23970
H920        H  0.23203701  0.70410709  0.15247707     0.15020
H921        H  0.26520709  0.79426065  0.09266167     0.15040
C922        C  0.26729161  0.80509182  0.15367422    -0.23910
H923        H  0.22098988  0.67562221  0.10909945     0.05260
H924        H  0.24806802  0.68180672  0.07904913     0.08480
H925        H  0.20924179  0.69727039  0.07612465     0.08480
H926        H  0.28766951  0.80087157  0.16854016     0.08470
H927        H  0.24805026  0.81361151  0.16807631     0.08470
H928        H  0.27324468  0.82328536  0.13702191     0.05240
C929        C  0.22353363  0.74686798  0.38931705    -0.20560
C930        C  0.25144225  0.75108176  0.40461016    -0.07130
C931        C  0.27849575  0.75509155  0.38758076     0.13740
C932        C  0.27681937  0.75516215  0.35530018    -0.20620
C933        C  0.24859516  0.75135520  0.33960065    -0.07130
C934        C  0.22146597  0.74722928  0.35717700     0.13730
C935        C  0.19010342  0.74285935  0.34286425    -0.23970
H936        H  0.20316813  0.74320772  0.40267416     0.15020
H937        H  0.29776855  0.75820455  0.34236153     0.15040
C938        C  0.30911850  0.75862311  0.40348707    -0.23910
H939        H  0.17203670  0.73946220  0.36045637     0.05260
H940        H  0.19018195  0.72228300  0.32779242     0.08480
H941        H  0.18350355  0.76347326  0.32950402     0.08480
H942        H  0.31398136  0.73807393  0.41764096     0.08470
H943        H  0.30871105  0.77915158  0.41861494     0.08470
H944        H  0.32813101  0.76124570  0.38678533     0.05240
C945        C  0.22871011  0.51256763  0.14152884    -0.20560
C946        C  0.25425846  0.99963393  0.15716905    -0.07130
C947        C  0.27838081  0.98614568  0.13984933     0.13740
C948        C  0.27652348  0.98614280  0.10759349    -0.20620
C949        C  0.25158232  0.99963410  0.09225294    -0.07130
C950        C  0.22708887  0.51280445  0.10932849     0.13730
C951        C  0.19916102  0.52624921  0.09365466    -0.23970
H952        H  0.21009109  0.52273808  0.15456833     0.15020
H953        H  0.29485810  0.97591005  0.09417980     0.15040
C954        C  0.30577366  0.97103555  0.15490353    -0.23910
H955        H  0.18190739  0.53453417  0.11052317     0.05260
H956        H  0.18807796  0.50860094  0.07891888     0.08480
H957        H  0.20591695  0.54594758  0.07923178     0.08480
H958        H  0.29798313  0.95279714  0.17070489     0.08470
H959        H  0.31938410  0.98827795  0.16782096     0.08470
H960        H  0.32131942  0.96031714  0.13772698     0.05240
C961        C  0.27705968  0.99642589  0.35920257    -0.20880
C962        C  0.24924614  0.00061612  0.34291915    -0.07130
C963        C  0.22144339  0.50465229  0.35998131     0.13740
C964        C  0.22266653  0.50440096  0.39225422    -0.20620
C965        C  0.25051052  0.99999403  0.40795381    -0.07130
C966        C  0.27796340  0.99604819  0.39145112     0.13730
C967        C  0.30823819  0.99182709  0.40795376    -0.23970
H968        H  0.29833644  0.99332428  0.34673205     0.15020
H969        H  0.20178889  0.50749875  0.40543783     0.15040
C970        C  0.19049100  0.50945583  0.34491778    -0.23910
H971        H  0.32763132  0.98931870  0.39162273     0.05260
H972        H  0.30747148  0.97096839  0.42239475     0.08480
H973        H  0.31274866  0.51198169  0.42282581     0.08480
H974        H  0.18450928  0.98908357  0.33084124     0.08470
H975        H  0.19095628  0.53020986  0.33031149     0.08470
H976        H  0.17195658  0.51279806  0.36209464     0.05240
C977        C  0.27404833  0.85793256  0.26019318    -0.20560
C978        C  0.24853739  0.84318866  0.24700751    -0.07130
C979        C  0.22419526  0.86125188  0.23491589     0.13740
C980        C  0.22622556  0.89328326  0.23630094    -0.20620
C981        C  0.25177498  0.90802874  0.24943073    -0.07130
C982        C  0.27600295  0.88994958  0.26173669     0.13730
C983        C  0.30366479  0.90387943  0.27737022    -0.23970
H984        H  0.29256663  0.84425465  0.26979505     0.15020
H985        H  0.20769286  0.90696063  0.22672963     0.15040
C986        C  0.19624707  0.84728489  0.21985395    -0.23910
H987        H  0.31911345  0.88616581  0.28734118     0.05260
H988        H  0.29615151  0.91913919  0.29642021     0.08480
H989        H  0.31734678  0.91697376  0.26052838     0.08480
H990        H  0.18290405  0.83424828  0.23701367     0.08470
H991        H  0.20335107  0.83194478  0.20073101     0.08470
H992        H  0.18061567  0.86497521  0.21012926     0.05240
C993        C  0.22437985  0.60838544  0.25385098    -0.20560
C994        C  0.25246087  0.59305176  0.24918348    -0.07130
C995        C  0.27918087  0.61076869  0.24390031     0.13740
C996        C  0.27685014  0.64283716  0.24336517    -0.20620
C997        C  0.24874144  0.65817369  0.24794848    -0.07130
C998        C  0.22204870  0.64044004  0.25337263     0.13730
C999        C  0.19088741  0.65462479  0.25909730    -0.23970
H1000       H  0.20385386  0.59516747  0.25809082     0.15020
H1001       H  0.29738495  0.65604852  0.23915442     0.15040
C1002       C  0.31033882  0.59652181  0.23834900    -0.23910
H1003       H  0.17311424  0.63711967  0.26375964     0.05260
H1004       H  0.18317729  0.66754872  0.23852280     0.08480
H1005       H  0.19196817  0.67000280  0.27946912     0.08480
H1006       H  0.30931919  0.58109582  0.21801396     0.08470
H1007       H  0.31791734  0.58361219  0.25898028     0.08470
H1008       H  0.32816050  0.61399460  0.23374641     0.05240
C1009       C  0.47602411  0.76506347  0.10983653    -0.20560
C1010       C  0.49827068  0.74675625  0.09524791    -0.07130
C1011       C  0.01844110  0.72871896  0.11339579     0.13740
C1012       C  0.01588209  0.72974874  0.14550015    -0.20620
C1013       C  0.49380770  0.74818108  0.16011678    -0.07130
C1014       C  0.47331575  0.76582198  0.14201493     0.13730
C1015       C  0.44924374  0.78620391  0.15636807    -0.23970
H1016       H  0.46049029  0.77872241  0.09589184     0.15020
H1017       H  0.03160703  0.71617150  0.15932972     0.15040
C1018       C  0.04377591  0.70904425  0.10020944    -0.23910
H1019       H  0.43625069  0.79939403  0.13877056     0.05260
H1020       H  0.46030469  0.80279344  0.17231265     0.08480
H1021       H  0.43245578  0.77216267  0.16914181     0.08480
H1022       H  0.06608331  0.71589910  0.11059047     0.08470
H1023       H  0.04621263  0.71097336  0.07501905     0.08470
H1024       H  0.03947969  0.68470366  0.10588883     0.05240
C1025       C  0.01639332  0.72964045  0.35997386    -0.20560
C1026       C  0.49894697  0.75221600  0.34508672    -0.07130
C1027       C  0.48357071  0.77470920  0.36271241     0.13740
C1028       C  0.48536106  0.77353239  0.39495243    -0.20620
C1029       C  0.50184722  0.75021013  0.41003650    -0.07130
C1030       C  0.01787678  0.72811404  0.39218752     0.13730
C1031       C  0.03720487  0.70326491  0.40667468    -0.23970
H1032       H  0.02848470  0.71271688  0.34623815     0.15020
H1033       H  0.47334295  0.79066605  0.40846787     0.15040
C1034       C  0.46605039  0.80046698  0.34760137    -0.23910
H1035       H  0.04973325  0.68955340  0.38915013     0.05260
H1036       H  0.02241165  0.68727045  0.41957753     0.08480
H1037       H  0.05451177  0.71356083  0.42239235     0.08480
H1038       H  0.44647914  0.79122106  0.33407354     0.08470
H1039       H  0.48152575  0.81329520  0.33211608     0.08470
H1040       H  0.45662443  0.81682213  0.36479781     0.05240
C1041       C  0.02393721  0.98661472  0.14201067    -0.20560
C1042       C  0.99981659  0.00147714  0.15756252    -0.07130
C1043       C  0.47649407  0.51654276  0.14020896     0.13740
C1044       C  0.47795867  0.51604922  0.10795958    -0.20620
C1045       C  0.00156496  0.50046681  0.09260026    -0.07130
C1046       C  0.02518390  0.98590617  0.10977867     0.13730
C1047       C  0.05183113  0.97012519  0.09420244    -0.23970
H1048       H  0.04179904  0.97516722  0.15515224     0.15020
H1049       H  0.46027467  0.52750044  0.09456495     0.15040
C1050       C  0.45055584  0.53393051  0.15527223    -0.23910
H1051       H  0.06865461  0.96093097  0.11113502     0.05260
H1052       H  0.06401376  0.98658914  0.07925201     0.08480
H1053       H  0.04345884  0.95066708  0.08004801     0.08480
H1054       H  0.45996835  0.55149865  0.17122120     0.08470
H1055       H  0.43561519  0.51795597  0.16803999     0.08470
H1056       H  0.43583139  0.54584127  0.13810646     0.05240
C1057       C  0.48645488  0.97681703  0.35768205    -0.20560
C1058       C  0.00171049  0.50053389  0.34264819    -0.07130
C1059       C  0.01623054  0.52365700  0.36008857     0.13740
C1060       C  0.01532439  0.52235918  0.39229969    -0.20620
C1061       C  0.00058318  0.49828714  0.40755720    -0.07130
C1062       C  0.48591279  0.97515249  0.38990986     0.13730
C1063       C  0.46887138  0.94912691  0.40463301    -0.23970
H1064       H  0.47517644  0.95928436  0.34404564     0.15020
H1065       H  0.02647112  0.54016705  0.40566322     0.15040
C1066       C  0.03184240  0.55020105  0.34480893    -0.23910
H1067       H  0.45731122  0.93439644  0.38724451     0.05260
H1068       H  0.45095262  0.95830560  0.42029573     0.08480
H1069       H  0.48512399  0.93437608  0.41765299     0.08480
H1070       H  0.01519107  0.56239851  0.32972618     0.08470
H1071       H  0.05144695  0.54178916  0.33087166     0.08470
H1072       H  0.04092946  0.56687689  0.36188573     0.05240
C1073       C  0.02457735  0.85781550  0.24695839    -0.20560
C1074       C  0.49624773  0.84321904  0.25156884    -0.07130
C1075       C  0.46960155  0.86164916  0.25573151     0.13740
C1076       C  0.47222513  0.89364169  0.25508687    -0.20620
C1077       C  0.50055537  0.90823939  0.25047077    -0.07130
C1078       C  0.02720114  0.88981594  0.24635858     0.13730
C1079       C  0.05860948  0.90320233  0.24100808    -0.23970
H1080       H  0.04509127  0.84406504  0.24366285     0.15020
H1081       H  0.45171643  0.90739154  0.25842317     0.15040
C1082       C  0.43818618  0.84830073  0.26119103    -0.23910
H1083       H  0.07637034  0.88519769  0.23747807     0.05260
H1084       H  0.06583697  0.91692590  0.26130857     0.08480
H1085       H  0.05819667  0.91766837  0.22009235     0.08480
H1086       H  0.43860778  0.83396674  0.28220094     0.08470
H1087       H  0.43093039  0.83446848  0.24097184     0.08470
H1088       H  0.42042894  0.86632429  0.26464134     0.05240
C1089       C  0.02343732  0.64318031  0.26064901    -0.20560
C1090       C  0.49600534  0.65821690  0.25239326    -0.07130
C1091       C  0.47043230  0.64038088  0.24305258     0.13740
C1092       C  0.47299972  0.60834379  0.24277783    -0.20620
C1093       C  0.50040043  0.59329819  0.25117893    -0.07130
C1094       C  0.02613881  0.61117806  0.26001331     0.13730
C1095       C  0.05656131  0.59715115  0.26920338    -0.23970
H1096       H  0.04312014  0.65660998  0.26776282     0.15020
H1097       H  0.45334678  0.59491654  0.23557206     0.15040
C1098       C  0.44052258  0.65456894  0.23252021    -0.23910
H1099       H  0.07346808  0.61472170  0.27654694     0.05260
H1100       H  0.06668481  0.58465746  0.24939508     0.08480
H1101       H  0.05335354  0.58135819  0.28877385     0.08480
H1102       H  0.44473260  0.67023810  0.21298054     0.08470
H1103       H  0.42965333  0.66726113  0.25179394     0.08470
H1104       H  0.42382527  0.63705227  0.22457106     0.05240
O1105       O  0.47571762  0.50030538  0.79451272    -0.74680
O1106       O  0.47465920  0.00140853  0.70654081    -0.74720
O1107       O  0.47536845  0.95712320  0.74991348    -0.74770
O1108       O  0.47522851  0.54471851  0.75120657    -0.74820
O1109       O  0.02629202  0.54452838  0.74993443    -0.74750
O1110       O  0.02640824  0.95696297  0.75032962    -0.74730
O1111       O  0.02575423  0.50041098  0.70603562    -0.74710
O1112       O  0.02702345  0.00129493  0.79414309    -0.74770
Ni1113     Ni  0.47345059  0.00090476  0.75054737     1.25410
Ni1114     Ni  0.02821333  0.00076569  0.75007862     1.25360
C1115       C  0.00151316  0.50085091  0.80877911     0.87490
C1116       C  0.99998395  0.00117768  0.69170432     0.87430
C1117       C  0.50094292  0.94242163  0.75013298     0.87450
C1118       C  0.50078116  0.55919765  0.75080390     0.87630
O1119       O  0.02282194  0.75086080  0.79606560    -0.74680
O1120       O  0.02008311  0.74967353  0.70815316    -0.74720
O1121       O  0.02136664  0.79422148  0.75174271    -0.74770
O1122       O  0.02123957  0.70665646  0.75231947    -0.74820
O1123       O  0.47017655  0.70707340  0.75393138    -0.74750
O1124       O  0.47034061  0.79461106  0.75251903    -0.74730
O1125       O  0.46889480  0.74995023  0.70917867    -0.74710
O1126       O  0.47159984  0.75201565  0.79735782    -0.74770
Ni1127     Ni  0.02318563  0.75037399  0.75204221     1.25410
Ni1128     Ni  0.46842230  0.75090821  0.75331877     1.25360
C1129       C  0.49767643  0.75185847  0.81117484     0.87490
C1130       C  0.49412477  0.74947467  0.69414025     0.87430
C1131       C  0.49584010  0.80903423  0.75200945     0.87450
C1132       C  0.49564323  0.69229947  0.75289525     0.87630
O1133       O  0.22516270  0.50087787  0.79288840    -0.74680
O1134       O  0.22766576  0.00041303  0.70510442    -0.74720
O1135       O  0.22629225  0.95681380  0.74900192    -0.74770
O1136       O  0.22685705  0.54454167  0.74890329    -0.74820
O1137       O  0.27786410  0.54392102  0.75076068    -0.74750
O1138       O  0.27737584  0.95642544  0.75077234    -0.74730
O1139       O  0.27878911  0.49988053  0.70672961    -0.74710
O1140       O  0.27614882  0.00037747  0.79487210    -0.74770
Ni1141     Ni  0.22468181  0.00069473  0.74893967     1.25410
Ni1142     Ni  0.27935379  0.00014223  0.75085813     1.25360
C1143       C  0.25011321  0.00067694  0.80857981     0.87490
C1144       C  0.25359648  0.99989481  0.69132305     0.87430
C1145       C  0.25183519  0.94207007  0.74992935     0.87450
C1146       C  0.25252322  0.55885365  0.74962271     0.87630
O1147       O  0.27418374  0.75094018  0.79090423    -0.74680
O1148       O  0.27425122  0.75072814  0.70286345    -0.74720
O1149       O  0.27399228  0.79460369  0.74692668    -0.74770
O1150       O  0.27415177  0.70685395  0.74692587    -0.74820
O1151       O  0.22311946  0.70715196  0.74693209    -0.74750
O1152       O  0.22287503  0.79462674  0.74595748    -0.74730
O1153       O  0.22295602  0.75008036  0.70244434    -0.74710
O1154       O  0.22316190  0.75158560  0.79031460    -0.74770
Ni1155     Ni  0.27599076  0.75076184  0.74688303     1.25410
Ni1156     Ni  0.22123183  0.75087536  0.74639091     1.25360
C1157       C  0.24855823  0.75130369  0.80528545     0.87490
C1158       C  0.24863265  0.75037205  0.68827296     0.87430
C1159       C  0.24832933  0.80915648  0.74639797     0.87450
C1160       C  0.24856921  0.69237738  0.74724807     0.87630
O1161       O  0.00142717  0.97365475  0.95652104    -0.74680
O1162       O  0.50220989  0.97443075  0.54445825    -0.74720
O1163       O  0.45816244  0.97351782  0.00081762    -0.74770
O1164       O  0.04530976  0.97483303  0.50016307    -0.74820
O1165       O  0.04403462  0.52574529  0.00058412    -0.74750
O1166       O  0.45630706  0.52386086  0.49947463    -0.74730
O1167       O  0.99970260  0.52542640  0.54409755    -0.74710
O1168       O  0.50055216  0.52422224  0.95600822    -0.74770
Ni1169     Ni  0.00204993  0.97242937  0.00051485     1.25410
Ni1170     Ni  0.00004693  0.52664594  0.50003144     1.25360
C1171       C  0.00062541  0.49852498  0.94167874     0.87490
C1172       C  0.50120031  0.50009439  0.55872357     0.87430
C1173       C  0.44292476  0.99861012  0.00001297     0.87450
C1174       C  0.05970282  0.00078179  0.00027295     0.87630
O1175       O  0.50234684  0.72396114  0.95820433    -0.74680
O1176       O  0.50032972  0.72208661  0.54614769    -0.74720
O1177       O  0.45728994  0.72201127  0.00074754    -0.74770
O1178       O  0.04547517  0.72414806  0.50320152    -0.74820
O1179       O  0.04393531  0.77520205  0.00431987    -0.74750
O1180       O  0.45575990  0.77299230  0.50268023    -0.74730
O1181       O  0.49909842  0.77310110  0.54747817    -0.74710
O1182       O  0.50037213  0.77487655  0.95930732    -0.74770
Ni1183     Ni  0.50142567  0.72124704  0.00208157     1.25410
Ni1184     Ni  0.49975877  0.77586797  0.50349929     1.25360
C1185       C  0.50171573  0.74963633  0.94418250     0.87490
C1186       C  0.49952744  0.74727610  0.56130420     0.87430
C1187       C  0.44202363  0.74716148  0.00119879     0.87450
C1188       C  0.05914739  0.75003565  0.00382650     0.87630
O1189       O  0.29363681  0.52600948  0.00005107    -0.74680
O1190       O  0.20587442  0.52429615  0.50031184    -0.74720
O1191       O  0.24985661  0.52517554  0.54415133    -0.74770
O1192       O  0.24945771  0.52534021  0.95620477    -0.74820
O1193       O  0.25140676  0.97428470  0.95588558    -0.74750
O1194       O  0.25168180  0.97412430  0.54390291    -0.74730
O1195       O  0.20783601  0.97324098  0.00013445    -0.74710
O1196       O  0.29491361  0.97522166  0.49973419    -0.74770
Ni1197     Ni  0.24960954  0.52704782  0.50019056     1.25410
Ni1198     Ni  0.25178377  0.97241659  0.99988730     1.25360
C1199       C  0.30935972  0.00116061  0.99984083     0.87490
C1200       C  0.19206090  0.99850595  0.50043398     0.87430
C1201       C  0.25079369  0.99964807  0.55843723     0.87450
C1202       C  0.25061116  0.99985777  0.94168297     0.87630
O1203       O  0.25040397  0.72474163  0.95209677    -0.74680
O1204       O  0.24971373  0.72302638  0.54003575    -0.74720
O1205       O  0.20583602  0.72471125  0.99566054    -0.74770
O1206       O  0.29420609  0.72312219  0.49658472    -0.74820
O1207       O  0.29469535  0.77409568  0.99883759    -0.74750
O1208       O  0.20648666  0.77576115  0.49671323    -0.74730
O1209       O  0.24975675  0.77389051  0.54147573    -0.74710
O1210       O  0.25174931  0.77580132  0.95344313    -0.74770
Ni1211     Ni  0.25001255  0.72208654  0.99600719     1.25410
Ni1212     Ni  0.25068374  0.77670655  0.49757796     1.25360
C1213       C  0.25147193  0.75054212  0.93838740     0.87490
C1214       C  0.24940272  0.74809820  0.55537619     0.87430
C1215       C  0.19168357  0.75049599  0.99647060     0.87450
C1216       C  0.30896014  0.74838822  0.99838622     0.87630
C1217       C  0.39178784  0.76415381  0.52200002    -0.20560
C1218       C  0.40800944  0.74655716  0.00037626    -0.07130
C1219       C  0.39151367  0.72932465  0.97823268     0.13740
C1220       C  0.35919745  0.73000838  0.97842084    -0.20620
C1221       C  0.34297918  0.74788616  0.99983088    -0.07130
C1222       C  0.35949658  0.76487798  0.52216882     0.13730
C1223       C  0.34322242  0.78285883  0.54694429    -0.23970
H1224       H  0.40450116  0.77712924  0.53910643     0.15020
H1225       H  0.34649840  0.71698108  0.96136379     0.15040
C1226       C  0.40784523  0.71125847  0.95358213    -0.23910
H1227       H  0.35968954  0.79322580  0.56353353     0.05260
H1228       H  0.32775506  0.76753845  0.55995530     0.08480
H1229       H  0.32957680  0.80171498  0.53659516     0.08480
H1230       H  0.42176343  0.69269286  0.96411135     0.08470
H1231       H  0.42307702  0.72660482  0.94032586     0.08470
H1232       H  0.39140342  0.70052985  0.93720479     0.05240
C1233       C  0.10717587  0.74704317  0.97418942    -0.20560
C1234       C  0.09300844  0.75083862  0.00281444    -0.07130
C1235       C  0.11140276  0.75520735  0.52937718     0.13740
C1236       C  0.14360007  0.75513888  0.52660708    -0.20620
C1237       C  0.15774365  0.75106024  0.99796177    -0.07130
C1238       C  0.13930586  0.74730653  0.97145248     0.13730
C1239       C  0.15352404  0.74413838  0.94024834    -0.23970
H1240       H  0.09298732  0.74409240  0.95383630     0.15020
H1241       H  0.15777197  0.75811971  0.54698545     0.15040
C1242       C  0.09790959  0.75969569  0.56089890    -0.23910
H1243       H  0.13592164  0.74161253  0.92182767     0.05260
H1244       H  0.16864115  0.72360968  0.93977091     0.08480
H1245       H  0.16714798  0.76495148  0.93538547     0.08480
H1246       H  0.10600633  0.74105849  0.57624111     0.08470
H1247       H  0.07244994  0.75970337  0.56075547     0.08470
H1248       H  0.10561859  0.78195348  0.57053782     0.05240
C1249       C  0.39276331  0.52599826  0.50400922    -0.20560
C1250       C  0.40873525  0.99838508  0.99981160    -0.07130
C1251       C  0.39115926  0.97146059  0.99536746     0.13740
C1252       C  0.35902462  0.97350991  0.99534692    -0.20620
C1253       C  0.34354871  0.00151263  0.99967232    -0.07130
C1254       C  0.36063164  0.52812880  0.50398723     0.13730
C1255       C  0.34629788  0.55928872  0.50888004    -0.23970
H1256       H  0.40596772  0.54668271  0.50751387     0.15020
H1257       H  0.34588090  0.95278911  0.99183579     0.15040
C1258       C  0.40557094  0.94036103  0.99030391    -0.23910
H1259       H  0.36385942  0.57734066  0.51241527     0.05260
H1260       H  0.33159005  0.55907540  0.52965609     0.08480
H1261       H  0.33264676  0.56580357  0.98837857     0.08480
H1262       H  0.41848062  0.93312581  0.51082564     0.08470
H1263       H  0.42050172  0.94079895  0.96969792     0.08470
H1264       H  0.38806006  0.92233271  0.98639805     0.05240
C1265       C  0.14257147  0.52349444  0.98812446    -0.20560
C1266       C  0.15859804  0.99807315  0.00058360    -0.07130
C1267       C  0.14085772  0.97399990  0.51337456     0.13740
C1268       C  0.10870512  0.97577258  0.51300446    -0.20620
C1269       C  0.09369510  0.00104375  0.00034596    -0.07130
C1270       C  0.11042752  0.52527610  0.98774947     0.13730
C1271       C  0.09539550  0.55277530  0.97301931    -0.23970
H1272       H  0.15566848  0.54198491  0.97820646     0.15020
H1273       H  0.09559313  0.95731175  0.52296456     0.15040
C1274       C  0.15590710  0.94657863  0.52820598    -0.23910
H1275       H  0.11254784  0.56841474  0.96279453     0.05260
H1276       H  0.08248950  0.56612744  0.99050353     0.08480
H1277       H  0.07963162  0.54527411  0.95431516     0.08480
H1278       H  0.17171395  0.95418184  0.54682909     0.08470
H1279       H  0.16877122  0.93313467  0.51076295     0.08470
H1280       H  0.13876600  0.93100744  0.53855486     0.05240
C1281       C  0.23922642  0.72365071  0.63910807    -0.20560
C1282       C  0.24869709  0.75013647  0.65453403    -0.07130
C1283       C  0.25797544  0.77586255  0.63767833     0.13740
C1284       C  0.25793065  0.77438267  0.60547181    -0.20620
C1285       C  0.24893374  0.74768280  0.58960683    -0.07130
C1286       C  0.23938319  0.72188462  0.60686045     0.13730
C1287       C  0.22881969  0.69254096  0.59188815    -0.23970
H1288       H  0.23200143  0.70410438  0.65247088     0.15020
H1289       H  0.26519937  0.79425443  0.59266557     0.15040
C1290       C  0.26726529  0.80508651  0.65367808    -0.23910
H1291       H  0.22097248  0.67561755  0.60909000     0.05260
H1292       H  0.24806043  0.68180292  0.57904866     0.08480
H1293       H  0.20923445  0.69726493  0.57611118     0.08480
H1294       H  0.28763932  0.80086480  0.66854886     0.08470
H1295       H  0.24802099  0.81360837  0.66807531     0.08470
H1296       H  0.27322455  0.82327928  0.63702718     0.05240
C1297       C  0.22351975  0.74686548  0.88932128    -0.20560
C1298       C  0.25143143  0.75107955  0.90460889    -0.07130
C1299       C  0.27848090  0.75509092  0.88757378     0.13740
C1300       C  0.27679710  0.75516330  0.85529338    -0.20620
C1301       C  0.24856922  0.75135650  0.83959947    -0.07130
C1302       C  0.22144458  0.74722903  0.85718166     0.13730
C1303       C  0.19007875  0.74286114  0.84287576    -0.23970
H1304       H  0.20315805  0.74320322  0.90268210     0.15020
H1305       H  0.29774355  0.75820636  0.84235062     0.15040
C1306       C  0.30910710  0.75862214  0.90347362    -0.23910
H1307       H  0.17201535  0.73946716  0.86047186     0.05260
H1308       H  0.19015209  0.72228355  0.82780564     0.08480
H1309       H  0.18347849  0.76347468  0.82951506     0.08480
H1310       H  0.31397348  0.73807242  0.91762571     0.08470
H1311       H  0.30870266  0.77914993  0.91860249     0.08470
H1312       H  0.32811587  0.76124574  0.88676781     0.05240
C1313       C  0.22865845  0.51259313  0.64154742    -0.20560
C1314       C  0.25394488  0.99966902  0.65715930    -0.07130
C1315       C  0.27804223  0.98619645  0.63979054     0.13740
C1316       C  0.27611815  0.98619143  0.60753577    -0.20620
C1317       C  0.25113448  0.99966524  0.59224465    -0.07130
C1318       C  0.22701384  0.51283675  0.60934793     0.13730
C1319       C  0.19907595  0.52628640  0.59369651    -0.23970
H1320       H  0.21004908  0.52276118  0.65460249     0.15020
H1321       H  0.29442806  0.97596423  0.59408433     0.15040
C1322       C  0.30547345  0.97110161  0.65479110    -0.23910
H1323       H  0.18183510  0.53456957  0.61057899     0.05260
H1324       H  0.18798121  0.50864167  0.57896528     0.08480
H1325       H  0.20582321  0.54598688  0.57927235     0.08480
H1326       H  0.29772533  0.95284771  0.67059549     0.08470
H1327       H  0.31908934  0.98834851  0.66769684     0.08470
H1328       H  0.32100008  0.96040656  0.63758252     0.05240
C1329       C  0.27706313  0.99638257  0.85910716    -0.20880
C1330       C  0.24919242  0.00058348  0.84292651    -0.07130
C1331       C  0.22152355  0.50462149  0.85999651     0.13740
C1332       C  0.22276162  0.50436154  0.89226851    -0.20620
C1333       C  0.25071601  0.99997035  0.90795964    -0.07130
C1334       C  0.27809497  0.99600737  0.89134769     0.13730
C1335       C  0.30843382  0.99177594  0.90772751    -0.23970
H1336       H  0.29829355  0.99327403  0.84656040     0.15020
H1337       H  0.20188970  0.50745348  0.90546251     0.15040
C1338       C  0.19056293  0.50942417  0.84494939    -0.23910
H1339       H  0.32776050  0.98926632  0.89131851     0.05260
H1340       H  0.30772025  0.97091395  0.92216689     0.08480
H1341       H  0.31285635  0.51194664  0.92280138     0.08480
H1342       H  0.18443595  0.98904176  0.83106231     0.08470
H1343       H  0.19101726  0.53018278  0.83034919     0.08470
H1344       H  0.17203623  0.51275806  0.86213614     0.05240
C1345       C  0.27390549  0.85795335  0.76019261    -0.20560
C1346       C  0.24841234  0.84318671  0.74700097    -0.07130
C1347       C  0.22405140  0.86122796  0.73491144     0.13740
C1348       C  0.22604685  0.89326221  0.73630472    -0.20620
C1349       C  0.25158179  0.90802923  0.74943620    -0.07130
C1350       C  0.27582673  0.88997145  0.76174192     0.13730
C1351       C  0.30347290  0.90392511  0.77738260    -0.23970
H1352       H  0.29243650  0.84429228  0.76979420     0.15020
H1353       H  0.20750214  0.90692467  0.72673503     0.15040
C1354       C  0.19612145  0.84723448  0.71984056    -0.23910
H1355       H  0.31893237  0.88622485  0.78736078     0.05260
H1356       H  0.29594180  0.91918150  0.79642827     0.08480
H1357       H  0.31715103  0.91702726  0.76054389     0.08480
H1358       H  0.18278851  0.83417988  0.73699426     0.08470
H1359       H  0.20324641  0.83190600  0.70071584     0.08470
H1360       H  0.18047350  0.86491068  0.71011639     0.05240
C1361       C  0.22439984  0.60838044  0.75386321    -0.20560
C1362       C  0.25248203  0.59305115  0.74919296    -0.07130
C1363       C  0.27919954  0.61077219  0.74390874     0.13740
C1364       C  0.27686432  0.64284107  0.74337419    -0.20620
C1365       C  0.24875300  0.65817235  0.74795742    -0.07130
C1366       C  0.22206344  0.64043377  0.75338423     0.13730
C1367       C  0.19089856  0.65461086  0.75911072    -0.23970
H1368       H  0.20387594  0.59515973  0.75810435     0.15020
H1369       H  0.29739618  0.65605674  0.73916260     0.15040
C1370       C  0.31035877  0.59652912  0.73835587    -0.23910
H1371       H  0.17313034  0.63710189  0.76377717     0.05260
H1372       H  0.18318190  0.66752964  0.73853532     0.08480
H1373       H  0.19197698  0.66999115  0.77948093     0.08480
H1374       H  0.30934081  0.58110579  0.71801872     0.08470
H1375       H  0.31793807  0.58361714  0.75898541     0.08470
H1376       H  0.32817859  0.61400447  0.73375586     0.05240
C1377       C  0.47602496  0.76506294  0.60983646    -0.20560
C1378       C  0.49827160  0.74675588  0.59524765    -0.07130
C1379       C  0.01844180  0.72871824  0.61339538     0.13740
C1380       C  0.01588236  0.72974720  0.64549970    -0.20620
C1381       C  0.49380772  0.74817904  0.66011653    -0.07130
C1382       C  0.47331622  0.76582068  0.64201489     0.13730
C1383       C  0.44924439  0.78620263  0.65636831    -0.23970
H1384       H  0.46049138  0.77872229  0.59589191     0.15020
H1385       H  0.03160714  0.71616961  0.65932910     0.15040
C1386       C  0.04377683  0.70904388  0.60020891    -0.23910
H1387       H  0.43625159  0.79939325  0.63877099     0.05260
H1388       H  0.46030547  0.80279172  0.67231327     0.08480
H1389       H  0.43245621  0.77216136  0.66914172     0.08480
H1390       H  0.06608411  0.71589870  0.61059025     0.08470
H1391       H  0.04621378  0.71097343  0.57501859     0.08470
H1392       H  0.03948067  0.68470318  0.60588785     0.05240
C1393       C  0.01639338  0.72963869  0.85997443    -0.20560
C1394       C  0.49894674  0.75221364  0.84508674    -0.07130
C1395       C  0.48357070  0.77470740  0.86271196     0.13740
C1396       C  0.48536120  0.77353145  0.89495205    -0.20620
C1397       C  0.50184736  0.75020953  0.91003668    -0.07130
C1398       C  0.01787699  0.72811313  0.89218814     0.13730
C1399       C  0.03720526  0.70326442  0.90667579    -0.23970
H1400       H  0.02848479  0.71271483  0.84623913     0.15020
H1401       H  0.47334314  0.79066544  0.90846712     0.15040
C1402       C  0.46605052  0.80046491  0.84760030    -0.23910
H1403       H  0.04973378  0.68955269  0.88915151     0.05260
H1404       H  0.02241216  0.68727007  0.91957889     0.08480
H1405       H  0.05451205  0.71356077  0.92239328     0.08480
H1406       H  0.44647925  0.79121878  0.83407266     0.08470
H1407       H  0.48152597  0.81329271  0.83211474     0.08470
H1408       H  0.45662461  0.81682047  0.86479637     0.05240
C1409       C  0.02376785  0.98657607  0.64195262    -0.20560
C1410       C  0.99967892  0.00143593  0.65755843    -0.07130
C1411       C  0.47643564  0.51656176  0.64022532     0.13740
C1412       C  0.47788066  0.51607240  0.60797477    -0.20620
C1413       C  0.00147592  0.50048931  0.59259954    -0.07130
C1414       C  0.02488361  0.98577452  0.60971384     0.13730
C1415       C  0.05152618  0.97005236  0.59407139    -0.23970
H1416       H  0.04170584  0.97520357  0.65505618     0.15020
H1417       H  0.46018989  0.52752705  0.59459205     0.15040
C1418       C  0.45050967  0.53395197  0.65530675    -0.23910
H1419       H  0.06845562  0.96097154  0.61096053     0.05260
H1420       H  0.06358194  0.98652250  0.57902406     0.08480
H1421       H  0.04317045  0.95052545  0.58000382     0.08480
H1422       H  0.45993498  0.55151565  0.67125313     0.08470
H1423       H  0.43557343  0.51797832  0.66808073     0.08470
H1424       H  0.43577757  0.54586845  0.63815152     0.05240
C1425       C  0.48661599  0.97702524  0.85779701    -0.20560
C1426       C  0.00175554  0.50053049  0.84264834    -0.07130
C1427       C  0.01628997  0.52364991  0.86008179     0.13740
C1428       C  0.01540772  0.52234711  0.89229351    -0.20620
C1429       C  0.00067438  0.49827485  0.90755797    -0.07130
C1430       C  0.48618653  0.97543837  0.89003093     0.13730
C1431       C  0.46915946  0.94946883  0.90487127    -0.23970
H1432       H  0.47527715  0.95946981  0.84424184     0.15020
H1433       H  0.02656585  0.54015169  0.90565188     0.15040
C1434       C  0.03189115  0.55019589  0.84479484    -0.23910
H1435       H  0.45749664  0.93473206  0.88755808     0.05260
H1436       H  0.45132417  0.95870849  0.92059322     0.08480
H1437       H  0.48543833  0.93470590  0.91784490     0.08480
H1438       H  0.01522904  0.56239573  0.82972583     0.08470
H1439       H  0.05148560  0.54178574  0.83084245     0.08470
H1440       H  0.04099044  0.56686923  0.86186756     0.05240
C1441       C  0.02457797  0.85780961  0.74695608    -0.20560
C1442       C  0.49624811  0.84321417  0.75156708    -0.07130
C1443       C  0.46960250  0.86164483  0.75572938     0.13740
C1444       C  0.47222726  0.89363736  0.75508543    -0.20620
C1445       C  0.50055864  0.90823484  0.75047234    -0.07130
C1446       C  0.02720325  0.88980990  0.74635746     0.13730
C1447       C  0.05861277  0.90319398  0.74100844    -0.23970
H1448       H  0.04509126  0.84405835  0.74365989     0.15020
H1449       H  0.45171837  0.90738712  0.75842048     0.15040
C1450       C  0.43818686  0.84829689  0.76118929    -0.23910
H1451       H  0.07637341  0.88518816  0.73748321     0.05260
H1452       H  0.06583833  0.91692052  0.76130760     0.08480
H1453       H  0.05820312  0.91765629  0.72009011     0.08480
H1454       H  0.43860836  0.83396332  0.78219953     0.08470
H1455       H  0.43093067  0.83446424  0.74097050     0.08470
H1456       H  0.42042992  0.86632075  0.76463939     0.05240
C1457       C  0.02343780  0.64317791  0.76064342    -0.20560
C1458       C  0.49600439  0.65821425  0.75239216    -0.07130
C1459       C  0.47042995  0.64037847  0.74305502     0.13740
C1460       C  0.47299697  0.60834153  0.74278125    -0.20620
C1461       C  0.50039891  0.59329634  0.75117857    -0.07130
C1462       C  0.02613927  0.61117594  0.76000704     0.13730
C1463       C  0.05656399  0.59714907  0.76918969    -0.23970
H1464       H  0.04312192  0.65660748  0.76775372     0.15020
H1465       H  0.45334297  0.59491402  0.73557886     0.15040
C1466       C  0.44051922  0.65456646  0.73252534    -0.23910
H1467       H  0.07347229  0.61471953  0.77652986     0.05260
H1468       H  0.06668298  0.58465599  0.74937870     0.08480
H1469       H  0.05336094  0.58135551  0.78876026     0.08480
H1470       H  0.44472735  0.67023500  0.71298473     0.08470
H1471       H  0.42965197  0.66725923  0.75179980     0.08470
H1472       H  0.42382103  0.63704969  0.72457833     0.05240
O1473       O  0.97571414  0.00030329  0.29448741    -0.74680
O1474       O  0.97464569  0.50141594  0.20652118    -0.74720
O1475       O  0.97533032  0.45712395  0.24988325    -0.74770
O1476       O  0.97526191  0.04471903  0.25118218    -0.74820
O1477       O  0.52632681  0.04452975  0.24996218    -0.74750
O1478       O  0.52637024  0.45696771  0.25034611    -0.74730
O1479       O  0.52583603  0.00041154  0.20607291    -0.74710
O1480       O  0.52694740  0.50128477  0.29416738    -0.74770
Ni1481     Ni  0.97340860  0.50090568  0.25052257     1.25410
Ni1482     Ni  0.52817206  0.50076848  0.25009932     1.25360
C1483       C  0.50149705  0.00085221  0.30877883     0.87490
C1484       C  0.49997961  0.50117949  0.19170256     0.87430
C1485       C  0.00090633  0.44242484  0.25012811     0.87450
C1486       C  0.00081452  0.05919882  0.25080480     0.87630
O1487       O  0.52282203  0.25087014  0.29606642    -0.74680
O1488       O  0.52008281  0.24968103  0.20815395    -0.74720
O1489       O  0.52135469  0.29423031  0.25174305    -0.74770
O1490       O  0.52125134  0.20666435  0.25232106    -0.74820
O1491       O  0.97018831  0.20706997  0.25393270    -0.74750
O1492       O  0.97032864  0.29460877  0.25252049    -0.74730
O1493       O  0.96889450  0.24994671  0.20917992    -0.74710
O1494       O  0.97159971  0.25201268  0.29735896    -0.74770
Ni1495     Ni  0.52318551  0.25038299  0.25204307     1.25410
Ni1496     Ni  0.96842215  0.25090467  0.25332005     1.25360
C1497       C  0.99767641  0.25186133  0.31117573     0.87490
C1498       C  0.99412442  0.24947615  0.19414131     0.87430
C1499       C  0.99582492  0.30903766  0.25201051     0.87450
C1500       C  0.99565832  0.19230154  0.25289651     0.87630
O1501       O  0.72533580  0.00088355  0.29286363    -0.74680
O1502       O  0.72768666  0.50040502  0.20508155    -0.74720
O1503       O  0.72627936  0.45681343  0.24898010    -0.74770
O1504       O  0.72706272  0.04453812  0.24887916    -0.74820
O1505       O  0.77806892  0.04392824  0.25078457    -0.74750
O1506       O  0.77736107  0.45642363  0.25079996    -0.74730
O1507       O  0.77902919  0.99987720  0.20676347    -0.74710
O1508       O  0.77610311  0.50038319  0.29490041    -0.74770
Ni1509     Ni  0.72467141  0.50069362  0.24890982     1.25410
Ni1510     Ni  0.77934149  0.50014111  0.25088277     1.25360
C1511       C  0.75004902  0.50068903  0.30857409     0.87490
C1512       C  0.75362826  0.49988354  0.19132294     0.87430
C1513       C  0.75182032  0.44206864  0.24993403     0.87450
C1514       C  0.75272458  0.05885520  0.24962270     0.87630
O1515       O  0.77422142  0.25095477  0.29090572    -0.74680
O1516       O  0.77429338  0.25074829  0.20286163    -0.74720
O1517       O  0.77400012  0.29461790  0.24692970    -0.74770
O1518       O  0.77423567  0.20687268  0.24692283    -0.74820
O1519       O  0.72320337  0.20712778  0.24692702    -0.74750
O1520       O  0.72288288  0.29460726  0.24595680    -0.74730
O1521       O  0.72299895  0.25005956  0.20244304    -0.74710
O1522       O  0.72319956  0.25156114  0.29030994    -0.74770
Ni1523     Ni  0.77603345  0.25078043  0.24688287     1.25410
Ni1524     Ni  0.72127471  0.25085147  0.24638775     1.25360
C1525       C  0.74859349  0.25129891  0.30528402     0.87490
C1526       C  0.74867442  0.25037195  0.18827138     0.87430
C1527       C  0.74832821  0.30915379  0.24640267     0.87450
C1528       C  0.74866647  0.19237459  0.24724382     0.87630
O1529       O  0.50091979  0.47330466  0.45649439    -0.74680
O1530       O  0.00230204  0.47440659  0.04445818    -0.74720
O1531       O  0.95762107  0.47305679  0.50079621    -0.74770
O1532       O  0.54541364  0.47482162  0.00017409    -0.74820
O1533       O  0.54393882  0.02575688  0.50057042    -0.74750
O1534       O  0.95691386  0.02432112  0.99950782    -0.74730
O1535       O  0.50034360  0.02575456  0.04412779    -0.74710
O1536       O  0.00044937  0.02423874  0.45600460    -0.74770
Ni1537     Ni  0.50153228  0.47208952  0.50049906     1.25410
Ni1538     Ni  0.50068594  0.02698783  0.00005440     1.25360
C1539       C  0.50052173  0.99854036  0.44167684     0.87490
C1540       C  0.00175717  0.00040896  0.05874117     0.87430
C1541       C  0.94235266  0.49813559  0.49999479     0.87450
C1542       C  0.55912072  0.50062830  0.50027120     0.87630
O1543       O  0.00234706  0.22396114  0.45820450    -0.74680
O1544       O  0.00032854  0.22208652  0.04614878    -0.74720
O1545       O  0.95729081  0.22201122  0.50074823    -0.74770
O1546       O  0.54547428  0.22414811  0.00320322    -0.74820
O1547       O  0.54393642  0.27520173  0.50431951    -0.74750
O1548       O  0.95575894  0.27299206  0.00268064    -0.74730
O1549       O  0.99909706  0.27310100  0.04747915    -0.74710
O1550       O  0.00037254  0.27487657  0.45930783    -0.74770
Ni1551     Ni  0.00142654  0.22124688  0.50208170     1.25410
Ni1552     Ni  0.99975777  0.27586785  0.00350019     1.25360
C1553       C  0.00171584  0.24963643  0.44418287     0.87490
C1554       C  0.99952621  0.24727602  0.06130525     0.87430
C1555       C  0.94202454  0.24716145  0.50119961     0.87450
C1556       C  0.55914849  0.25003531  0.50382524     0.87630
O1557       O  0.79353463  0.02605288  0.50007350    -0.74680
O1558       O  0.70638627  0.02417591  0.00034084    -0.74720
O1559       O  0.75034791  0.02515967  0.04416532    -0.74770
O1560       O  0.74938562  0.02537454  0.45620350    -0.74820
O1561       O  0.75084956  0.47429569  0.45587213    -0.74750
O1562       O  0.75179682  0.47408923  0.04390413    -0.74730
O1563       O  0.70724080  0.47336219  0.50010372    -0.74710
O1564       O  0.79500940  0.47517827  0.99971291    -0.74770
Ni1565     Ni  0.75008962  0.02704125  0.00020322     1.25410
Ni1566     Ni  0.75117597  0.47242059  0.49987589     1.25360
C1567       C  0.80881191  0.50097867  0.49984760     0.87490
C1568       C  0.69216001  0.49848478  0.00046419     0.87430
C1569       C  0.75091340  0.49961351  0.05843773     0.87450
C1570       C  0.75017196  0.49987382  0.44167293     0.87630
O1571       O  0.75040770  0.22474300  0.45209500    -0.74680
O1572       O  0.74971534  0.22302857  0.04003425    -0.74720
O1573       O  0.70583703  0.22471078  0.49565635    -0.74770
O1574       O  0.79420525  0.22312312  0.99658145    -0.74820
O1575       O  0.79469621  0.27409486  0.49883968    -0.74750
O1576       O  0.70648554  0.27576176  0.99671212    -0.74730
O1577       O  0.74975804  0.27389271  0.04147290    -0.74710
O1578       O  0.75175268  0.27580269  0.45344353    -0.74770
Ni1579     Ni  0.75001351  0.22208589  0.49600508     1.25410
Ni1580     Ni  0.75068276  0.27670739  0.99757498     1.25360
C1581       C  0.75147716  0.25054404  0.43838687     0.87490
C1582       C  0.74940612  0.24810077  0.05537408     0.87430
C1583       C  0.69168467  0.25049554  0.49646757     0.87450
C1584       C  0.80896103  0.24838743  0.49838760     0.87630
C1585       C  0.89178646  0.26415325  0.02199943    -0.20560
C1586       C  0.90801035  0.24655711  0.50037712    -0.07130
C1587       C  0.89151456  0.22932393  0.47823407     0.13740
C1588       C  0.85919837  0.23000708  0.47842274    -0.20620
C1589       C  0.84298007  0.24788541  0.49983232    -0.07130
C1590       C  0.85949519  0.26487779  0.02216718     0.13730
C1591       C  0.84322041  0.28285792  0.04694277    -0.23970
H1592       H  0.90449939  0.27712811  0.03910658     0.15020
H1593       H  0.84649939  0.21697879  0.46136646     0.15040
C1594       C  0.90784604  0.21125770  0.45358349    -0.23910
H1595       H  0.85968712  0.29322441  0.06353275     0.05260
H1596       H  0.82775272  0.26753716  0.05995294     0.08480
H1597       H  0.82957503  0.30171435  0.03659386     0.08480
H1598       H  0.92176459  0.19269235  0.46411267     0.08470
H1599       H  0.92307744  0.22660412  0.44032685     0.08470
H1600       H  0.89140415  0.20052874  0.43720644     0.05240
C1601       C  0.60717695  0.24704264  0.47418701    -0.20560
C1602       C  0.59300966  0.25083819  0.50281231    -0.07130
C1603       C  0.61140206  0.25520776  0.02937886     0.13740
C1604       C  0.64359938  0.25513936  0.02660826    -0.20620
C1605       C  0.65774486  0.25105982  0.49795887    -0.07130
C1606       C  0.63930707  0.24730610  0.47144964     0.13730
C1607       C  0.65352555  0.24413856  0.44024518    -0.23970
H1608       H  0.59298822  0.24409191  0.45383403     0.15020
H1609       H  0.65777162  0.25812035  0.04698636     0.15040
C1610       C  0.59790932  0.25969627  0.06090069    -0.23910
H1611       H  0.63592304  0.24161243  0.42182467     0.05260
H1612       H  0.66864370  0.22361062  0.43976694     0.08480
H1613       H  0.66714913  0.26495186  0.43538219     0.08480
H1614       H  0.60600627  0.24105914  0.07624289     0.08470
H1615       H  0.57244967  0.25970395  0.06075751     0.08470
H1616       H  0.60561844  0.28195411  0.07053938     0.05240
C1617       C  0.89327034  0.02642160  0.00396154    -0.20560
C1618       C  0.90816674  0.49793321  0.49982427    -0.07130
C1619       C  0.89053768  0.47105284  0.49535453     0.13740
C1620       C  0.85840301  0.47317825  0.49533942    -0.20620
C1621       C  0.84299578  0.50122356  0.49968128    -0.07130
C1622       C  0.86112354  0.02846781  0.00395837     0.13730
C1623       C  0.84670460  0.05958606  0.00886387    -0.23970
H1624       H  0.90643563  0.04713535  0.00743862     0.15020
H1625       H  0.84520792  0.45249256  0.49180990     0.15040
C1626       C  0.90489835  0.43993929  0.49024938    -0.23910
H1627       H  0.86421867  0.07768542  0.01238929     0.05260
H1628       H  0.83201164  0.05932662  0.02964998     0.08480
H1629       H  0.83254804  0.06584286  0.48837877     0.08480
H1630       H  0.91858676  0.43308942  0.01081643     0.08470
H1631       H  0.91982152  0.44038078  0.46963719     0.08470
H1632       H  0.88735374  0.42194440  0.48633499     0.05240
C1633       C  0.64246798  0.02350210  0.48808215    -0.20560
C1634       C  0.65803303  0.49821524  0.50064118    -0.07130
C1635       C  0.64095396  0.47398765  0.01340738     0.13740
C1636       C  0.60880178  0.47576395  0.01303458    -0.20620
C1637       C  0.59311445  0.50100798  0.50037637    -0.07130
C1638       C  0.61032381  0.02528049  0.48771052     0.13730
C1639       C  0.59528745  0.05277496  0.47297559    -0.23970
H1640       H  0.65556225  0.04199228  0.47816003     0.15020
H1641       H  0.59568721  0.45730235  0.02298981     0.15040
C1642       C  0.65599926  0.44656194  0.02823471    -0.23910
H1643       H  0.61243689  0.06841154  0.46274168     0.05260
H1644       H  0.58238568  0.06613250  0.49045881     0.08480
H1645       H  0.57951910  0.04526781  0.45427761     0.08480
H1646       H  0.67180801  0.45416000  0.04685830     0.08470
H1647       H  0.66886049  0.43311795  0.01078958     0.08470
H1648       H  0.63885580  0.43099230  0.03858201     0.05240
C1649       C  0.73925806  0.22365076  0.13910858    -0.20560
C1650       C  0.74873406  0.25013601  0.15453239    -0.07130
C1651       C  0.75799901  0.27586531  0.13767438     0.13740
C1652       C  0.75794302  0.27438659  0.10546770    -0.20620
C1653       C  0.74894430  0.24768597  0.08960485    -0.07130
C1654       C  0.73940092  0.22188675  0.10686082     0.13730
C1655       C  0.72882950  0.19254458  0.09189110    -0.23970
H1656       H  0.73203854  0.20410356  0.15247313     0.15020
H1657       H  0.76520371  0.29426014  0.09265966     0.15040
C1658       C  0.76728319  0.30509222  0.15367199    -0.23910
H1659       H  0.72098673  0.17562128  0.10909514     0.05260
H1660       H  0.74806457  0.18180509  0.07904442     0.08480
H1661       H  0.70923913  0.19727101  0.07612122     0.08480
H1662       H  0.78766348  0.30087751  0.16853611     0.08470
H1663       H  0.74804027  0.31360675  0.16807569     0.08470
H1664       H  0.77323024  0.32328768  0.13701959     0.05240
C1665       C  0.72353416  0.24687141  0.38931535    -0.20560
C1666       C  0.75144307  0.25108235  0.40460858    -0.07130
C1667       C  0.77849695  0.25508934  0.38757916     0.13740
C1668       C  0.77682093  0.25515869  0.35529845    -0.20620
C1669       C  0.74859665  0.25135298  0.33959835    -0.07130
C1670       C  0.72146670  0.24723142  0.35717519     0.13730
C1671       C  0.69010269  0.24286799  0.34286355    -0.23970
H1672       H  0.70316814  0.24321437  0.40267260     0.15020
H1673       H  0.79777087  0.25819801  0.34236032     0.15040
C1674       C  0.80911977  0.25861946  0.40348567    -0.23910
H1675       H  0.67203448  0.23948232  0.36045649     0.05260
H1676       H  0.69017392  0.22228680  0.32779845     0.08480
H1677       H  0.68351028  0.26348009  0.32949685     0.08480
H1678       H  0.81398112  0.23807050  0.41764037     0.08470
H1679       H  0.80871346  0.27914850  0.41861279     0.08470
H1680       H  0.82813266  0.26124024  0.38678406     0.05240
C1681       C  0.72898162  0.01254586  0.14150943    -0.20560
C1682       C  0.75400051  0.49964931  0.15716021    -0.07130
C1683       C  0.77810834  0.48617085  0.13981142     0.13740
C1684       C  0.77620744  0.48616040  0.10755514    -0.20620
C1685       C  0.75123487  0.49963287  0.09224473    -0.07130
C1686       C  0.72740225  0.01278693  0.10930618     0.13730
C1687       C  0.69948229  0.02621006  0.09359808    -0.23970
H1688       H  0.71034419  0.02270971  0.15452790     0.15020
H1689       H  0.79452623  0.47593009  0.09411827     0.15040
C1690       C  0.80552572  0.47107502  0.15483572    -0.23910
H1691       H  0.68220214  0.03448244  0.11044567     0.05260
H1692       H  0.68842983  0.00855205  0.07885069     0.08480
H1693       H  0.70623839  0.04591319  0.07918216     0.08480
H1694       H  0.79776250  0.45282564  0.17063794     0.08470
H1695       H  0.81913430  0.48832242  0.16774854     0.08470
H1696       H  0.82106356  0.46037416  0.13764098     0.05240
C1697       C  0.77689066  0.49642146  0.35917298    -0.20880
C1698       C  0.74906084  0.50061389  0.34291820    -0.07130
C1699       C  0.72161007  0.00465292  0.35995331     0.13740
C1700       C  0.72279760  0.00439795  0.39222585    -0.20620
C1701       C  0.75039789  0.49999792  0.40795271    -0.07130
C1702       C  0.77783065  0.49604694  0.39141958     0.13730
C1703       C  0.80812388  0.49182399  0.40788750    -0.23970
H1704       H  0.79815421  0.49331631  0.34668098     0.15020
H1705       H  0.70190530  0.00749372  0.40538667     0.15040
C1706       C  0.69067208  0.00945925  0.34486010    -0.23910
H1707       H  0.82749782  0.48931187  0.39153423     0.05260
H1708       H  0.80737173  0.47096665  0.42233134     0.08480
H1709       H  0.81284354  0.01198387  0.42289949     0.08480
H1710       H  0.68431790  0.48908011  0.33090362     0.08470
H1711       H  0.69115295  0.03021359  0.33025482     0.08470
H1712       H  0.67212108  0.01280361  0.36201845     0.05240
C1713       C  0.77388717  0.35795333  0.26020995    -0.20560
C1714       C  0.74839706  0.34318394  0.24701544    -0.07130
C1715       C  0.72403450  0.36122216  0.23492643     0.13740
C1716       C  0.72602820  0.39325730  0.23631808    -0.20620
C1717       C  0.75156418  0.40802712  0.24944687    -0.07130
C1718       C  0.77580801  0.38997084  0.26175652     0.13730
C1719       C  0.80345485  0.40392459  0.27739609    -0.23970
H1720       H  0.79241900  0.34429437  0.26981301     0.15020
H1721       H  0.70748259  0.40691767  0.22674727     0.15040
C1722       C  0.69610714  0.34722377  0.21985606    -0.23910
H1723       H  0.81891334  0.38622481  0.28737665     0.05260
H1724       H  0.79592447  0.41918321  0.29644019     0.08480
H1725       H  0.81713427  0.41702361  0.26055592     0.08480
H1726       H  0.68278039  0.33416177  0.23700895     0.08470
H1727       H  0.70323490  0.33190034  0.20072819     0.08470
H1728       H  0.68045350  0.36489763  0.21013665     0.05240
C1729       C  0.72457159  0.10836014  0.25386641    -0.20560
C1730       C  0.75266523  0.09305214  0.24919563    -0.07130
C1731       C  0.77936861  0.11079234  0.24391101     0.13740
C1732       C  0.77700741  0.14286044  0.24337336    -0.20620
C1733       C  0.74888226  0.15816977  0.24795473    -0.07130
C1734       C  0.72220841  0.14041029  0.25338454     0.13730
C1735       C  0.69103170  0.15456113  0.25911152    -0.23970
H1736       H  0.70405806  0.09512446  0.25811030     0.15020
H1737       H  0.79752848  0.15609236  0.23916081     0.15040
C1738       C  0.81053683  0.09656914  0.23836004    -0.23910
H1739       H  0.67327881  0.13703752  0.26378080     0.05260
H1740       H  0.68330244  0.16747112  0.23853518     0.08480
H1741       H  0.69209799  0.16994404  0.27948033     0.08480
H1742       H  0.80952879  0.08114257  0.21802489     0.08470
H1743       H  0.81812343  0.08366285  0.25899052     0.08470
H1744       H  0.82834467  0.11405643  0.23375908     0.05240
C1745       C  0.97602357  0.26506247  0.10983760    -0.20560
C1746       C  0.99827052  0.24675581  0.09524877    -0.07130
C1747       C  0.51844119  0.22871865  0.11339655     0.13740
C1748       C  0.51588204  0.22974795  0.14550095    -0.20620
C1749       C  0.99380715  0.24817953  0.16011769    -0.07130
C1750       C  0.97331505  0.26582037  0.14201605     0.13730
C1751       C  0.94924286  0.28620172  0.15636967    -0.23970
H1752       H  0.96048960  0.27872141  0.09589308     0.15020
H1753       H  0.53160723  0.21617096  0.15933050     0.15040
C1754       C  0.54377639  0.20904458  0.10021001    -0.23910
H1755       H  0.93624944  0.29939184  0.13877243     0.05260
H1756       H  0.96030370  0.30279120  0.17231439     0.08480
H1757       H  0.93245534  0.27216004  0.16914349     0.08480
H1758       H  0.56608366  0.21589977  0.11059112     0.08470
H1759       H  0.54621306  0.21097401  0.07501964     0.08470
H1760       H  0.53948065  0.18470384  0.10588913     0.05240
C1761       C  0.51639333  0.22964027  0.35997453    -0.20560
C1762       C  0.99894667  0.25221554  0.34508744    -0.07130
C1763       C  0.98357000  0.27470848  0.36271299     0.13740
C1764       C  0.98536044  0.27353189  0.39495301    -0.20620
C1765       C  0.00184703  0.25020993  0.41003713    -0.07130
C1766       C  0.51787680  0.22811395  0.39218819     0.13730
C1767       C  0.53720509  0.20326499  0.40667539    -0.23970
H1768       H  0.52848493  0.21271689  0.34623879     0.15020
H1769       H  0.97334207  0.29066540  0.40846840     0.15040
C1770       C  0.96604900  0.30046561  0.34760162    -0.23910
H1771       H  0.54973357  0.18955354  0.38915085     0.05260
H1772       H  0.52241201  0.18727044  0.41957826     0.08480
H1773       H  0.55451191  0.21356107  0.42239302     0.08480
H1774       H  0.94647842  0.29121890  0.33407336     0.08470
H1775       H  0.98152416  0.31329436  0.33211657     0.08470
H1776       H  0.95662213  0.31682041  0.36479789     0.05240
C1777       C  0.52379077  0.48656109  0.14196979    -0.20560
C1778       C  0.49969230  0.50142461  0.15755684    -0.07130
C1779       C  0.97668886  0.01666855  0.14018735     0.13740
C1780       C  0.97828815  0.01631439  0.10794286    -0.20620
C1781       C  0.50193267  0.00075664  0.09261574    -0.07130
C1782       C  0.52492632  0.48575155  0.10973213     0.13730
C1783       C  0.55157881  0.47002648  0.09410997    -0.23970
H1784       H  0.54172172  0.47519359  0.15508731     0.15020
H1785       H  0.96066530  0.02783087  0.09452462     0.15040
C1786       C  0.95067214  0.03396269  0.15522049    -0.23910
H1787       H  0.56849636  0.46094718  0.11101177     0.05260
H1788       H  0.56364532  0.48649423  0.07906872     0.08480
H1789       H  0.54323162  0.45049805  0.08003936     0.08480
H1790       H  0.95999950  0.05148583  0.17126928     0.08470
H1791       H  0.93571459  0.01791361  0.16787556     0.08470
H1792       H  0.93598906  0.04591217  0.13804670     0.05240
C1793       C  0.98644878  0.47681633  0.35768374    -0.20560
C1794       C  0.50171329  0.00053656  0.34264737    -0.07130
C1795       C  0.51623543  0.02365870  0.36008798     0.13740
C1796       C  0.51532960  0.02236018  0.39229889    -0.20620
C1797       C  0.50058876  0.99828761  0.40755591    -0.07130
C1798       C  0.98590641  0.47515220  0.38991167     0.13730
C1799       C  0.96886487  0.44912682  0.40463559    -0.23970
H1800       H  0.97516762  0.45928498  0.34404786     0.15020
H1801       H  0.52647721  0.04016736  0.40566266     0.15040
C1802       C  0.53185095  0.05020160  0.34480927    -0.23910
H1803       H  0.95730313  0.43439697  0.38724764     0.05260
H1804       H  0.95094742  0.45830557  0.42029981     0.08480
H1805       H  0.98511797  0.43437525  0.41765422     0.08480
H1806       H  0.51520249  0.06239951  0.32972378     0.08470
H1807       H  0.55145729  0.04178865  0.33087512     0.08470
H1808       H  0.54093666  0.06687766  0.36188664     0.05240
C1809       C  0.52455409  0.35781786  0.24695816    -0.20560
C1810       C  0.99622647  0.34321802  0.25156869    -0.07130
C1811       C  0.96957806  0.36164484  0.25573129     0.13740
C1812       C  0.97219808  0.39363793  0.25508831    -0.20620
C1813       C  0.00052686  0.40823895  0.25047285    -0.07130
C1814       C  0.52717449  0.38981828  0.24635923     0.13730
C1815       C  0.55858197  0.40320707  0.24100919    -0.23970
H1816       H  0.54506961  0.34406993  0.24366197     0.15020
H1817       H  0.95168778  0.40738537  0.25842458     0.15040
C1818       C  0.93816422  0.34829212  0.26118847    -0.23910
H1819       H  0.57634466  0.38520391  0.23748065     0.05260
H1820       H  0.56580756  0.41693224  0.26130928     0.08480
H1821       H  0.55816889  0.41767168  0.22009249     0.08480
H1822       H  0.93858636  0.33395781  0.28219812     0.08470
H1823       H  0.93091190  0.33445899  0.24096863     0.08470
H1824       H  0.92040437  0.36631336  0.26463773     0.05240
C1825       C  0.52345967  0.14318297  0.26064962    -0.20560
C1826       C  0.99602613  0.15821603  0.25239222    -0.07130
C1827       C  0.97045656  0.14037693  0.24304821     0.13740
C1828       C  0.97302826  0.10834044  0.24277291    -0.20620
C1829       C  0.00042946  0.09329800  0.25117832    -0.07130
C1830       C  0.52616497  0.11118082  0.26001466     0.13730
C1831       C  0.55658800  0.09715700  0.26920759    -0.23970
H1832       H  0.54314011  0.15661526  0.26776505     0.15020
H1833       H  0.95337758  0.09491120  0.23556464     0.15040
C1834       C  0.94054569  0.15456111  0.23251352    -0.23910
H1835       H  0.57349282  0.11472946  0.27655084     0.05260
H1836       H  0.56671356  0.08466255  0.24940075     0.08480
H1837       H  0.55338033  0.08136526  0.28877919     0.08480
H1838       H  0.94475533  0.17023248  0.21297555     0.08470
H1839       H  0.92967214  0.16724993  0.25178704     0.08470
H1840       H  0.92385197  0.13704248  0.22456113     0.05240
O1841       O  0.97577476  0.00032488  0.79452876    -0.74680
O1842       O  0.97462101  0.50141800  0.70653466    -0.74720
O1843       O  0.97532783  0.45712307  0.74989486    -0.74770
O1844       O  0.97527247  0.04471656  0.75120717    -0.74820
O1845       O  0.52633572  0.04452793  0.74992396    -0.74750
O1846       O  0.52636772  0.45696689  0.75033108    -0.74730
O1847       O  0.52579238  0.00040374  0.70603240    -0.74710
O1848       O  0.52696683  0.50128214  0.79415418    -0.74770
Ni1849     Ni  0.97340629  0.50090502  0.75053669     1.25410
Ni1850     Ni  0.52816939  0.50076773  0.75008532     1.25360
C1851       C  0.50157818  0.00089807  0.80878197     0.87490
C1852       C  0.49994722  0.50118464  0.69170297     0.87430
C1853       C  0.00090392  0.44242382  0.75012634     0.87450
C1854       C  0.00082416  0.05919657  0.75079896     0.87630
O1855       O  0.52282085  0.25086752  0.79606607    -0.74680
O1856       O  0.52008184  0.24967917  0.70815370    -0.74720
O1857       O  0.52135377  0.29422817  0.75174306    -0.74770
O1858       O  0.52124956  0.20666238  0.75232027    -0.74820
O1859       O  0.97018658  0.20706686  0.75393185    -0.74750
O1860       O  0.97032770  0.29460637  0.75252048    -0.74730
O1861       O  0.96889347  0.24994448  0.70917934    -0.74710
O1862       O  0.97159851  0.25200959  0.79735872    -0.74770
Ni1863     Ni  0.52318422  0.25038078  0.75204273     1.25410
Ni1864     Ni  0.96842087  0.25090197  0.75331962     1.25360
C1865       C  0.99767528  0.25185857  0.81117548     0.87490
C1866       C  0.99412352  0.24947429  0.69414089     0.87430
C1867       C  0.99582393  0.30903549  0.75201052     0.87450
C1868       C  0.99565687  0.19229888  0.75289586     0.87630
O1869       O  0.72515743  0.00088104  0.79291116    -0.74680
O1870       O  0.72767937  0.50041237  0.70509676    -0.74720
O1871       O  0.72630287  0.45681302  0.74898872    -0.74770
O1872       O  0.72684721  0.04454373  0.74891420    -0.74820
O1873       O  0.77785478  0.04392131  0.75075279    -0.74750
O1874       O  0.77738580  0.45642373  0.75077812    -0.74730
O1875       O  0.77877567  0.99988074  0.70672614    -0.74710
O1876       O  0.77615184  0.50037562  0.79488652    -0.74770
Ni1877     Ni  0.72469310  0.50069296  0.74892618     1.25410
Ni1878     Ni  0.77936429  0.50014106  0.75086581     1.25360
C1879       C  0.75010526  0.50067729  0.80857500     0.87490
C1880       C  0.75361164  0.49989510  0.69132129     0.87430
C1881       C  0.75184489  0.44206883  0.74992595     0.87450
C1882       C  0.75251434  0.05885475  0.74962351     0.87630
O1883       O  0.77418381  0.25093982  0.79090314    -0.74680
O1884       O  0.77425131  0.25072767  0.70286243    -0.74720
O1885       O  0.77399288  0.29460292  0.74692576    -0.74770
O1886       O  0.77415139  0.20685362  0.74692494    -0.74820
O1887       O  0.72311908  0.20715297  0.74693099    -0.74750
O1888       O  0.72287556  0.29462713  0.74595666    -0.74730
O1889       O  0.72295609  0.25008100  0.70244333    -0.74710
O1890       O  0.72316196  0.25158615  0.79031349    -0.74770
Ni1891     Ni  0.77599088  0.25076134  0.74688201     1.25410
Ni1892     Ni  0.72123190  0.25087600  0.74638988     1.25360
C1893       C  0.74855829  0.25130388  0.80528432     0.87490
C1894       C  0.74863273  0.25037209  0.68827194     0.87430
C1895       C  0.74833021  0.30915616  0.74639747     0.87450
C1896       C  0.74856842  0.19237785  0.74724718     0.87630
O1897       O  0.50104100  0.47328767  0.95649307    -0.74680
O1898       O  0.00218256  0.47442907  0.54445816    -0.74720
O1899       O  0.95774408  0.47302518  0.00079456    -0.74770
O1900       O  0.54529228  0.47483279  0.50017303    -0.74820
O1901       O  0.54457365  0.02595795  0.00058946    -0.74750
O1902       O  0.95632442  0.02386043  0.49948154    -0.74730
O1903       O  0.49972876  0.02542793  0.54409627    -0.74710
O1904       O  0.00105148  0.02458804  0.95601864    -0.74770
Ni1905     Ni  0.50165483  0.47206899  0.00049826     1.25410
Ni1906     Ni  0.50006444  0.02664613  0.50003002     1.25360
C1907       C  0.50103273  0.99888411  0.94169757     0.87490
C1908       C  0.00123016  0.00009667  0.55872319     0.87430
C1909       C  0.94247096  0.49810089  0.99999488     0.87450
C1910       C  0.55923835  0.50061906  0.00027612     0.87630
O1911       O  0.00234677  0.22396103  0.95820488    -0.74680
O1912       O  0.00032988  0.22208638  0.54614834    -0.74720
O1913       O  0.95728991  0.22201112  0.00074811    -0.74770
O1914       O  0.54547527  0.22414791  0.50320196    -0.74820
O1915       O  0.54393525  0.27520195  0.00432048    -0.74750
O1916       O  0.95575998  0.27299216  0.50268092    -0.74730
O1917       O  0.99909851  0.27310086  0.54747891    -0.74710
O1918       O  0.00037202  0.27487644  0.95930791    -0.74770
Ni1919     Ni  0.00142564  0.22124692  0.00208216     1.25410
Ni1920     Ni  0.99975884  0.27586781  0.50349997     1.25360
C1921       C  0.00171559  0.24963623  0.94418305     0.87490
C1922       C  0.99952749  0.24727583  0.56130491     0.87430
C1923       C  0.94202357  0.24716131  0.00119927     0.87450
C1924       C  0.55914736  0.25003556  0.00382690     0.87630
O1925       O  0.79399286  0.02619244  0.00004547    -0.74680
O1926       O  0.70589371  0.02429232  0.50028565    -0.74720
O1927       O  0.74985173  0.02517289  0.54415027    -0.74770
O1928       O  0.74977134  0.02536537  0.95621343    -0.74820
O1929       O  0.75096424  0.47425619  0.95587290    -0.74750
O1930       O  0.75168553  0.47412687  0.54390241    -0.74730
O1931       O  0.70735406  0.47333386  0.00010423    -0.74710
O1932       O  0.79489356  0.47522547  0.49971039    -0.74770
Ni1933     Ni  0.74962978  0.02704398  0.50018920     1.25410
Ni1934     Ni  0.75128989  0.47238207  0.99987715     1.25360
C1935       C  0.80893076  0.50093003  0.99985003     0.87490
C1936       C  0.69204177  0.49850981  0.50046261     0.87430
C1937       C  0.75080254  0.49965035  0.55843737     0.87450
C1938       C  0.75028852  0.49983430  0.94167347     0.87630
O1939       O  0.75040401  0.22474206  0.95209468    -0.74680
O1940       O  0.74971361  0.22302655  0.54003454    -0.74720
O1941       O  0.70583596  0.22471108  0.99565828    -0.74770
O1942       O  0.79420620  0.22312245  0.49658377    -0.74820
O1943       O  0.79469523  0.27409558  0.99883625    -0.74750
O1944       O  0.70648677  0.27576144  0.49671212    -0.74730
O1945       O  0.74975682  0.27389068  0.54147464    -0.74710
O1946       O  0.75174936  0.27580178  0.95344169    -0.74770
Ni1947     Ni  0.75001251  0.22208640  0.99600487     1.25410
Ni1948     Ni  0.75068386  0.27670685  0.49757683     1.25360
C1949       C  0.75147200  0.25054273  0.93838573     0.87490
C1950       C  0.74940268  0.24809834  0.55537506     0.87430
C1951       C  0.69168348  0.25049581  0.99646885     0.87450
C1952       C  0.80896007  0.24838814  0.99838470     0.87630
C1953       C  0.89178774  0.26415376  0.52200018    -0.20560
C1954       C  0.90800938  0.24655697  0.00037631    -0.07130
C1955       C  0.89151391  0.22932441  0.97823252     0.13740
C1956       C  0.85919769  0.23000821  0.97842016    -0.20620
C1957       C  0.84297911  0.24788608  0.99982988    -0.07130
C1958       C  0.85949648  0.26487804  0.52216862     0.13730
C1959       C  0.84322209  0.28285886  0.54694395    -0.23970
H1960       H  0.90450091  0.27712914  0.53910673     0.15020
H1961       H  0.84649888  0.21698091  0.96136294     0.15040
C1962       C  0.90784581  0.21125811  0.95358229    -0.23910
H1963       H  0.85968906  0.29322578  0.56353338     0.05260
H1964       H  0.82775458  0.26753848  0.55995478     0.08480
H1965       H  0.82957660  0.30171505  0.53659472     0.08480
H1966       H  0.92176378  0.19269249  0.96411177     0.08470
H1967       H  0.92307783  0.22660438  0.94032620     0.08470
H1968       H  0.89140421  0.20052948  0.93720473     0.05240
C1969       C  0.60717542  0.24704297  0.97418908    -0.20560
C1970       C  0.59300842  0.25083854  0.00281432    -0.07130
C1971       C  0.61140316  0.25520746  0.52937693     0.13740
C1972       C  0.64360046  0.25513910  0.52660647    -0.20620
C1973       C  0.65774358  0.25106002  0.99796059    -0.07130
C1974       C  0.63930537  0.24730626  0.97145161     0.13730
C1975       C  0.65352308  0.24413813  0.94024723    -0.23970
H1976       H  0.59298655  0.24409219  0.95383619     0.15020
H1977       H  0.65777256  0.25812008  0.54698468     0.15040
C1978       C  0.59791030  0.25969595  0.56089877    -0.23910
H1979       H  0.63592038  0.24161220  0.92182685     0.05260
H1980       H  0.66864029  0.22360951  0.93976953     0.08480
H1981       H  0.66714686  0.26495127  0.93538412     0.08480
H1982       H  0.60600723  0.24105886  0.57624102     0.08470
H1983       H  0.57245065  0.25970356  0.56075560     0.08470
H1984       H  0.60561933  0.28195381  0.57053748     0.05240
C1985       C  0.89278155  0.02599653  0.50402670    -0.20560
C1986       C  0.90828543  0.49789196  0.99982671    -0.07130
C1987       C  0.89065954  0.47100945  0.99535599     0.13740
C1988       C  0.85852417  0.47313110  0.99534175    -0.20620
C1989       C  0.84311451  0.50117476  0.99968598    -0.07130
C1990       C  0.86065003  0.02812637  0.50400862     0.13730
C1991       C  0.84631598  0.05928681  0.50889738    -0.23970
H1992       H  0.90598592  0.04668149  0.50752819     0.15020
H1993       H  0.84533056  0.45244468  0.99181069     0.15040
C1994       C  0.90502452  0.43989814  0.99024934    -0.23910
H1995       H  0.86387740  0.07733956  0.51242870     0.05260
H1996       H  0.83160919  0.05907653  0.52967422     0.08480
H1997       H  0.83290175  0.06610850  0.98835787     0.08480
H1998       H  0.91845846  0.43312904  0.51081733     0.08470
H1999       H  0.91994682  0.44034230  0.96963666     0.08470
H2000       H  0.88748222  0.42190096  0.98633531     0.05240
C2001       C  0.64307414  0.02336156  0.98797836    -0.20560
C2002       C  0.65815104  0.49819815  0.00064817    -0.07130
C2003       C  0.64083880  0.47400226  0.51339996     0.13740
C2004       C  0.60868619  0.47577379  0.51302540    -0.20620
C2005       C  0.59323243  0.50100081  0.00038775    -0.07130
C2006       C  0.61094237  0.02522823  0.98761758     0.13730
C2007       C  0.59597797  0.05272207  0.97281081    -0.23970
H2008       H  0.65620895  0.04179512  0.97800383     0.15020
H2009       H  0.59557338  0.45731187  0.52298237     0.15040
C2010       C  0.65588761  0.44657943  0.52822905    -0.23910
H2011       H  0.61316629  0.06827520  0.96251379     0.05260
H2012       H  0.58313167  0.06617157  0.99026400     0.08480
H2013       H  0.58017195  0.04520559  0.95414889     0.08480
H2014       H  0.67169311  0.45418059  0.54685414     0.08470
H2015       H  0.66875319  0.43313777  0.51078530     0.08470
H2016       H  0.63874594  0.43100667  0.53857458     0.05240
C2017       C  0.73922649  0.22365074  0.63910703    -0.20560
C2018       C  0.74869714  0.25013649  0.65453301    -0.07130
C2019       C  0.75797541  0.27586260  0.63767734     0.13740
C2020       C  0.75793058  0.27438276  0.60547079    -0.20620
C2021       C  0.74893370  0.24768290  0.58960576    -0.07130
C2022       C  0.73938321  0.22188469  0.60685939     0.13730
C2023       C  0.72881975  0.19254103  0.59188708    -0.23970
H2024       H  0.73200155  0.20410440  0.65246984     0.15020
H2025       H  0.76519926  0.29425456  0.59266459     0.15040
C2026       C  0.76726524  0.30508654  0.65367714    -0.23910
H2027       H  0.72097261  0.17561758  0.60908894     0.05260
H2028       H  0.74806048  0.18180306  0.57904754     0.08480
H2029       H  0.70923447  0.19726498  0.57611017     0.08480
H2030       H  0.78763927  0.30086482  0.66854792     0.08470
H2031       H  0.74802093  0.31360836  0.66807441     0.08470
H2032       H  0.77322448  0.32327936  0.63702629     0.05240
C2033       C  0.72351973  0.24686645  0.88931997    -0.20560
C2034       C  0.75143145  0.25108049  0.90460743    -0.07130
C2035       C  0.77848095  0.25509170  0.88757240     0.13740
C2036       C  0.77679715  0.25516390  0.85529206    -0.20620
C2037       C  0.74856925  0.25135698  0.83959824    -0.07130
C2038       C  0.72144456  0.24722970  0.85718041     0.13730
C2039       C  0.69007874  0.24286160  0.84287455    -0.23970
H2040       H  0.70315800  0.24320434  0.90268089     0.15020
H2041       H  0.79774361  0.25820685  0.84234928     0.15040
C2042       C  0.80910715  0.25862290  0.90347229    -0.23910
H2043       H  0.67201536  0.23946769  0.86047070     0.05260
H2044       H  0.69015215  0.22228390  0.82780459     0.08480
H2045       H  0.68347839  0.26347502  0.82951372     0.08480
H2046       H  0.81397347  0.23807326  0.91762451     0.08470
H2047       H  0.80870275  0.27915078  0.91860105     0.08470
H2048       H  0.82811596  0.26124637  0.88676649     0.05240
C2049       C  0.72864547  0.01259326  0.64154758    -0.20560
C2050       C  0.75395993  0.49967058  0.65715812    -0.07130
C2051       C  0.77805514  0.48619640  0.63978921     0.13740
C2052       C  0.77613043  0.48619215  0.60753447    -0.20620
C2053       C  0.75114655  0.49966693  0.59224436    -0.07130
C2054       C  0.72700246  0.01283715  0.60934768     0.13730
C2055       C  0.69906668  0.02628915  0.59369526    -0.23970
H2056       H  0.71003653  0.02276244  0.65460231     0.15020
H2057       H  0.79443954  0.47596435  0.59408249     0.15040
C2058       C  0.80548383  0.47109842  0.65479053    -0.23910
H2059       H  0.68182647  0.03457486  0.61057717     0.05260
H2060       H  0.68797044  0.00864496  0.57896454     0.08480
H2061       H  0.70581656  0.04598825  0.57927048     0.08480
H2062       H  0.79773282  0.45284505  0.67059419     0.08470
H2063       H  0.81910062  0.48834362  0.66769759     0.08470
H2064       H  0.82100990  0.46040224  0.63758227     0.05240
C2065       C  0.77697165  0.49639898  0.85916042    -0.20880
C2066       C  0.74913395  0.50059263  0.84291956    -0.07130
C2067       C  0.72162058  0.00461488  0.86006289     0.13740
C2068       C  0.72293424  0.00436516  0.89233749    -0.20620
C2069       C  0.75050065  0.49995925  0.90795323    -0.07130
C2070       C  0.77792631  0.49601591  0.89140675     0.13730
C2071       C  0.80822702  0.49179207  0.90786021    -0.23970
H2072       H  0.79822970  0.49330011  0.84665762     0.15020
H2073       H  0.70209368  0.00746156  0.90557950     0.15040
C2074       C  0.69063192  0.00941287  0.84507321    -0.23910
H2075       H  0.82759381  0.48928574  0.89149764     0.05260
H2076       H  0.80748310  0.47093115  0.92229940     0.08480
H2077       H  0.81310310  0.01192869  0.92265853     0.08480
H2078       H  0.68438642  0.48905147  0.83093229     0.08470
H2079       H  0.69105624  0.03017178  0.83047206     0.08470
H2080       H  0.67213784  0.01274097  0.86229632     0.05240
C2081       C  0.77390802  0.35795111  0.76019369    -0.20560
C2082       C  0.74841434  0.34318606  0.74700134    -0.07130
C2083       C  0.72405453  0.36122844  0.73491157     0.13740
C2084       C  0.72605262  0.39326245  0.73630359    -0.20620
C2085       C  0.75158904  0.40802806  0.74943429    -0.07130
C2086       C  0.77583169  0.38996895  0.76174221     0.13730
C2087       C  0.80347790  0.40392082  0.77738432    -0.23970
H2088       H  0.79243770  0.34428894  0.76979627     0.15020
H2089       H  0.70750879  0.40692571  0.72673337     0.15040
C2090       C  0.69612335  0.34723644  0.71984146    -0.23910
H2091       H  0.81893546  0.38621964  0.78736378     0.05260
H2092       H  0.79594668  0.41917795  0.79642934     0.08480
H2093       H  0.81715800  0.41702170  0.76054622     0.08480
H2094       H  0.68279015  0.33418256  0.73699553     0.08470
H2095       H  0.70324697  0.33190752  0.70071659     0.08470
H2096       H  0.68047608  0.36491344  0.71011766     0.05240
C2097       C  0.72439449  0.10838295  0.75386262    -0.20560
C2098       C  0.75247557  0.09305205  0.74919237    -0.07130
C2099       C  0.77919450  0.11077141  0.74390823     0.13740
C2100       C  0.77686126  0.14284038  0.74337373    -0.20620
C2101       C  0.74875077  0.15817309  0.74795685    -0.07130
C2102       C  0.72206015  0.14043618  0.75338377     0.13730
C2103       C  0.69089606  0.15461482  0.75911071    -0.23970
H2104       H  0.70386969  0.09516362  0.75810369     0.15020
H2105       H  0.79739388  0.15605496  0.73916236     0.15040
C2106       C  0.81035330  0.09652682  0.73835619    -0.23910
H2107       H  0.67312699  0.13710681  0.76377754     0.05260
H2108       H  0.68317965  0.16753380  0.73853536     0.08480
H2109       H  0.69197557  0.16999507  0.77948090     0.08480
H2110       H  0.80933547  0.08110429  0.71801842     0.08470
H2111       H  0.81793109  0.08361380  0.75898563     0.08470
H2112       H  0.82817432  0.11400131  0.73375747     0.05240
C2113       C  0.97602426  0.26506205  0.60983712    -0.20560
C2114       C  0.99827139  0.24675548  0.59524840    -0.07130
C2115       C  0.51844181  0.22871814  0.61339625     0.13740
C2116       C  0.51588206  0.22974692  0.64550061    -0.20620
C2117       C  0.99380676  0.24817817  0.66011725    -0.07130
C2118       C  0.97331518  0.26581950  0.64201554     0.13730
C2119       C  0.94924303  0.28620092  0.65636912    -0.23970
H2120       H  0.96049058  0.27872125  0.59589253     0.15020
H2121       H  0.53160703  0.21616975  0.65933021     0.15040
C2122       C  0.54377728  0.20904432  0.60020984    -0.23910
H2123       H  0.93624996  0.29939139  0.63877190     0.05260
H2124       H  0.96030387  0.30279008  0.67231418     0.08480
H2125       H  0.93245522  0.27215927  0.66914259     0.08480
H2126       H  0.56608439  0.21589955  0.61059126     0.08470
H2127       H  0.54621425  0.21097399  0.57501952     0.08470
H2128       H  0.53948159  0.18470351  0.60588867     0.05240
C2129       C  0.51639290  0.22963869  0.85997478    -0.20560
C2130       C  0.99894587  0.25221346  0.84508728    -0.07130
C2131       C  0.98356973  0.27470703  0.86271252     0.13740
C2132       C  0.98536049  0.27353117  0.89495261    -0.20620
C2133       C  0.00184702  0.25020943  0.91003718    -0.07130
C2134       C  0.51787674  0.22811314  0.89218851     0.13730
C2135       C  0.53720527  0.20326458  0.90667606    -0.23970
H2136       H  0.52848445  0.21271505  0.84623932     0.15020
H2137       H  0.97334234  0.29066507  0.90846771     0.15040
C2138       C  0.96604905  0.30046410  0.84760070    -0.23910
H2139       H  0.54973378  0.18955292  0.88915171     0.05260
H2140       H  0.52241236  0.18727013  0.91957927     0.08480
H2141       H  0.55451208  0.21356105  0.92239345     0.08480
H2142       H  0.94647834  0.29121739  0.83407262     0.08470
H2143       H  0.98152437  0.31329235  0.83211538     0.08470
H2144       H  0.95662242  0.31681934  0.86479668     0.05240
C2145       C  0.52373068  0.48657585  0.64195424    -0.20560
C2146       C  0.49964180  0.50143748  0.65755744    -0.07130
C2147       C  0.97647796  0.01656960  0.64022874     0.13740
C2148       C  0.97792076  0.01608149  0.60797784    -0.20620
C2149       C  0.50151134  0.00049367  0.59259969    -0.07130
C2150       C  0.52484743  0.48577152  0.60971583     0.13730
C2151       C  0.55149120  0.47004902  0.59407599    -0.23970
H2152       H  0.54166863  0.47520539  0.65505965     0.15020
H2153       H  0.96023154  0.02754085  0.59459720     0.15040
C2154       C  0.95056131  0.03396985  0.65531403    -0.23910
H2155       H  0.56841893  0.46096803  0.61096673     0.05260
H2156       H  0.56354848  0.48651906  0.57902982     0.08480
H2157       H  0.54313662  0.45052208  0.58000777     0.08480
H2158       H  0.95999626  0.05152867  0.67126018     0.08470
H2159       H  0.93562008  0.01800206  0.66808938     0.08470
H2160       H  0.93583250  0.04589339  0.63816099     0.05240
C2161       C  0.98649879  0.47681460  0.85769160    -0.20560
C2162       C  0.50185325  0.00068625  0.84265364    -0.07130
C2163       C  0.51643358  0.02384976  0.85999187     0.13740
C2164       C  0.51564697  0.02262720  0.89221125    -0.20620
C2165       C  0.50096045  0.99859170  0.90757498    -0.07130
C2166       C  0.98597784  0.47514708  0.88991979     0.13730
C2167       C  0.96893563  0.44912743  0.90465296    -0.23970
H2168       H  0.97520436  0.45928736  0.84406149     0.15020
H2169       H  0.52685013  0.04045836  0.90549479     0.15040
C2170       C  0.53198991  0.05035591  0.84459319    -0.23910
H2171       H  0.95735662  0.43440357  0.88727146     0.05260
H2172       H  0.95103206  0.45831246  0.92032940     0.08480
H2173       H  0.98519111  0.43436864  0.91766031     0.08480
H2174       H  0.51528782  0.06250735  0.82952816     0.08470
H2175       H  0.55155527  0.04191011  0.83062189     0.08470
H2176       H  0.54112301  0.06708044  0.86159620     0.05240
C2177       C  0.52455289  0.35781629  0.74695833    -0.20560
C2178       C  0.99622534  0.34321609  0.75156852    -0.07130
C2179       C  0.96957676  0.36164281  0.75573039     0.13740
C2180       C  0.97219633  0.39363601  0.75508651    -0.20620
C2181       C  0.00052490  0.40823754  0.75047100    -0.07130
C2182       C  0.52717292  0.38981686  0.74635864     0.13730
C2183       C  0.55858072  0.40320564  0.74101027    -0.23970
H2184       H  0.54506864  0.34406850  0.74366303     0.15020
H2185       H  0.95168564  0.40738306  0.75842186     0.15040
C2186       C  0.93816309  0.34828983  0.76118776    -0.23910
H2187       H  0.57634406  0.38520247  0.73748508     0.05260
H2188       H  0.56580412  0.41693289  0.76130974     0.08480
H2189       H  0.55816945  0.41766811  0.72009207     0.08480
H2190       H  0.93858540  0.33395595  0.78219772     0.08470
H2191       H  0.93091100  0.33445620  0.74096819     0.08470
H2192       H  0.92040301  0.36631091  0.76463662     0.05240
C2193       C  0.52346614  0.14318281  0.76063345    -0.20560
C2194       C  0.99602644  0.15821319  0.75239199    -0.07130
C2195       C  0.97045499  0.14037141  0.74305863     0.13740
C2196       C  0.97302809  0.10833502  0.74278814    -0.20620
C2197       C  0.00043690  0.09329557  0.75117391    -0.07130
C2198       C  0.52617765  0.11118162  0.75998784     0.13730
C2199       C  0.55661712  0.09716431  0.76913408    -0.23970
H2200       H  0.54314953  0.15661685  0.76773694     0.15020
H2201       H  0.95337433  0.09490358  0.73559270     0.15040
C2202       C  0.94054237  0.15455242  0.73252505    -0.23910
H2203       H  0.57352727  0.11473904  0.77645913     0.05260
H2204       H  0.56671747  0.08467710  0.74930999     0.08480
H2205       H  0.55344345  0.08136711  0.78870347     0.08480
H2206       H  0.94474943  0.17021923  0.71298273     0.08470
H2207       H  0.92967093  0.16724552  0.75179680     0.08470
H2208       H  0.92384832  0.13703159  0.72457830     0.05240
O2209       O  0.97569785  0.50030751  0.29449953    -0.74680
O2210       O  0.97470094  0.00142624  0.20650061    -0.74720
O2211       O  0.97536242  0.95712516  0.24986230    -0.74770
O2212       O  0.97523033  0.54471943  0.25119214    -0.74820
O2213       O  0.52629445  0.54452951  0.24994570    -0.74750
O2214       O  0.52640241  0.95696690  0.25036111    -0.74730
O2215       O  0.52577926  0.50040858  0.20604864    -0.74710
O2216       O  0.52696396  0.00128403  0.29417951    -0.74770
Ni2217     Ni  0.97344130  0.00090651  0.25050618     1.25410
Ni2218     Ni  0.52820558  0.00076828  0.25011698     1.25360
C2219       C  0.50148614  0.50085334  0.30877909     0.87490
C2220       C  0.50004987  0.00119344  0.19170555     0.87430
C2221       C  0.00093768  0.94242512  0.25012485     0.87450
C2222       C  0.00078312  0.55919892  0.25080268     0.87630
O2223       O  0.52282239  0.75086497  0.29606570    -0.74680
O2224       O  0.52008348  0.74967699  0.20815323    -0.74720
O2225       O  0.52136688  0.79422600  0.25174261    -0.74770
O2226       O  0.52124029  0.70665989  0.25232008    -0.74820
O2227       O  0.97017728  0.70707658  0.25393138    -0.74750
O2228       O  0.97034092  0.79461512  0.25251955    -0.74730
O2229       O  0.96889523  0.74995386  0.20917893    -0.74710
O2230       O  0.97160030  0.75201898  0.29735786    -0.74770
Ni2231     Ni  0.52318608  0.75037795  0.25204233     1.25410
Ni2232     Ni  0.96842282  0.75091182  0.25331893     1.25360
C2233       C  0.99767686  0.75186186  0.31117488     0.87490
C2234       C  0.99412511  0.74947779  0.19414042     0.87430
C2235       C  0.99584026  0.80903871  0.25201009     0.87450
C2236       C  0.99564406  0.69230258  0.25289579     0.87630
O2237       O  0.72511490  0.50088631  0.29287334    -0.74680
O2238       O  0.72792088  0.00040773  0.20507737    -0.74720
O2239       O  0.72650875  0.95681817  0.24897122    -0.74770
O2240       O  0.72683471  0.54454266  0.24888155    -0.74820
O2241       O  0.77784081  0.54392124  0.25077043    -0.74750
O2242       O  0.77759000  0.95642207  0.25081206    -0.74730
O2243       O  0.77879549  0.49987296  0.20674739    -0.74710
O2244       O  0.77632282  0.00038509  0.29491619    -0.74770
Ni2245     Ni  0.72490071  0.00069388  0.24890378     1.25410
Ni2246     Ni  0.77957041  0.00014405  0.25089751     1.25360
C2247       C  0.75026154  0.00068916  0.30857653     0.87490
C2248       C  0.75386733  0.99988328  0.19132981     0.87430
C2249       C  0.75204686  0.94207015  0.24993104     0.87450
C2250       C  0.75250060  0.55885425  0.24961543     0.87630
O2251       O  0.77421889  0.75092021  0.29090863    -0.74680
O2252       O  0.77429130  0.75071448  0.20286477    -0.74720
O2253       O  0.77407024  0.79458448  0.24693371    -0.74770
O2254       O  0.77415997  0.70684048  0.24692491    -0.74820
O2255       O  0.72312745  0.70716881  0.24692997    -0.74750
O2256       O  0.72295288  0.79464970  0.24596150    -0.74730
O2257       O  0.72299544  0.75010340  0.20244607    -0.74710
O2258       O  0.72319730  0.75160355  0.29031365    -0.74770
Ni2259     Ni  0.77603071  0.75074375  0.24688613     1.25410
Ni2260     Ni  0.72127163  0.75089706  0.24639146     1.25360
C2261       C  0.74859135  0.75130214  0.30528700     0.87490
C2262       C  0.74867182  0.75037658  0.18827442     0.87430
C2263       C  0.74842039  0.80915848  0.24640497     0.87450
C2264       C  0.74856942  0.69237905  0.24724438     0.87630
O2265       O  0.50092849  0.97330434  0.45649330    -0.74680
O2266       O  0.00270188  0.97475201  0.04446377    -0.74720
O2267       O  0.95763930  0.97305641  0.50080465    -0.74770
O2268       O  0.54580393  0.97503041  0.00018281    -0.74820
O2269       O  0.54392098  0.52575665  0.50058046    -0.74750
O2270       O  0.95642018  0.52382923  0.99947543    -0.74730
O2271       O  0.49981218  0.52540352  0.04409870    -0.74710
O2272       O  0.00044018  0.52423907  0.45600588    -0.74770
Ni2273     Ni  0.50155013  0.97208978  0.50049850     1.25410
Ni2274     Ni  0.50015933  0.52662529  0.00003341     1.25360
C2275       C  0.50051446  0.49854064  0.44167806     0.87490
C2276       C  0.00130935  0.50007137  0.05872424     0.87430
C2277       C  0.94237054  0.99813494  0.50000489     0.87450
C2278       C  0.55913841  0.00062838  0.50025840     0.87630
O2279       O  0.00234710  0.72396127  0.45820386    -0.74680
O2280       O  0.00032855  0.72208669  0.04614812    -0.74720
O2281       O  0.95729075  0.72201136  0.50074755    -0.74770
O2282       O  0.54547430  0.72414820  0.00320273    -0.74820
O2283       O  0.54393632  0.77520188  0.50431897    -0.74750
O2284       O  0.95575903  0.77299221  0.00268002    -0.74730
O2285       O  0.99909720  0.77310119  0.04747836    -0.74710
O2286       O  0.00037256  0.77487670  0.45930718    -0.74770
Ni2287     Ni  0.00142646  0.72124704  0.50208108     1.25410
Ni2288     Ni  0.99975786  0.77586798  0.00349951     1.25360
C2289       C  0.00171592  0.74963656  0.44418223     0.87490
C2290       C  0.99952634  0.74727624  0.06130449     0.87430
C2291       C  0.94202446  0.74716158  0.50119899     0.87450
C2292       C  0.55914838  0.75003545  0.50382490     0.87630
O2293       O  0.79351496  0.52605664  0.50005061    -0.74680
O2294       O  0.70599791  0.52426799  0.00031150    -0.74720
O2295       O  0.74997759  0.52513822  0.04415048    -0.74770
O2296       O  0.74933444  0.52537949  0.45620450    -0.74820
O2297       O  0.75090059  0.97429068  0.45587243    -0.74750
O2298       O  0.75229712  0.97411471  0.04390915    -0.74730
O2299       O  0.70726055  0.97335847  0.50007974    -0.74710
O2300       O  0.79550832  0.97536484  0.99970244    -0.74770
Ni2301     Ni  0.74973295  0.52700952  0.00019026     1.25410
Ni2302     Ni  0.75119665  0.97241675  0.49987616     1.25360
C2303       C  0.80883148  0.00097499  0.49987373     0.87490
C2304       C  0.69259929  0.99836933  0.00047309     0.87430
C2305       C  0.75132374  0.99963200  0.05844709     0.87450
C2306       C  0.75024206  0.99986893  0.44167298     0.87630
O2307       O  0.75040718  0.72474249  0.45209641    -0.74680
O2308       O  0.74971548  0.72302929  0.04003683    -0.74720
O2309       O  0.70583689  0.72471047  0.49565781    -0.74770
O2310       O  0.79420527  0.72312319  0.99658357    -0.74820
O2311       O  0.79469607  0.77409459  0.49884068    -0.74750
O2312       O  0.70648566  0.77576193  0.99671378    -0.74730
O2313       O  0.74975843  0.77389343  0.04147479    -0.74710
O2314       O  0.75175245  0.77580220  0.45344479    -0.74770
Ni2315     Ni  0.75001337  0.72208557  0.49600636     1.25410
Ni2316     Ni  0.75068289  0.77670751  0.99757657     1.25360
C2317       C  0.75147662  0.75054350  0.43838827     0.87490
C2318       C  0.74940656  0.74810169  0.05537645     0.87430
C2319       C  0.69168456  0.75049525  0.49646872     0.87450
C2320       C  0.80896091  0.74838719  0.49838841     0.87630
C2321       C  0.89178682  0.76415336  0.02199968    -0.20560
C2322       C  0.90801027  0.74655721  0.50037679    -0.07130
C2323       C  0.89151430  0.72932396  0.47823393     0.13740
C2324       C  0.85919810  0.73000700  0.47842296    -0.20620
C2325       C  0.84297998  0.74788525  0.49983274    -0.07130
C2326       C  0.85949556  0.76487785  0.02216793     0.13730
C2327       C  0.84322110  0.78285795  0.04694375    -0.23970
H2328       H  0.90449999  0.77712817  0.03910668     0.15020
H2329       H  0.84649898  0.71697869  0.46136681     0.15040
C2330       C  0.90784558  0.71125776  0.45358319    -0.23910
H2331       H  0.85968803  0.79322448  0.06353348     0.05260
H2332       H  0.82775364  0.76753715  0.05995415     0.08480
H2333       H  0.82957551  0.80171433  0.03659503     0.08480
H2334       H  0.92176429  0.69269245  0.46411225     0.08470
H2335       H  0.92307682  0.72660421  0.44032641     0.08470
H2336       H  0.89140356  0.70052876  0.43720632     0.05240
C2337       C  0.60717709  0.74704285  0.47418718    -0.20560
C2338       C  0.59300953  0.75083832  0.50281234    -0.07130
C2339       C  0.61140166  0.75520776  0.02937929     0.13740
C2340       C  0.64359901  0.75513944  0.02660921    -0.20620
C2341       C  0.65774475  0.75105960  0.49795964    -0.07130
C2342       C  0.63930723  0.74730607  0.47145018     0.13730
C2343       C  0.65352602  0.74413809  0.44024594    -0.23970
H2344       H  0.59298856  0.74409220  0.45383404     0.15020
H2345       H  0.65777092  0.75812036  0.04698755     0.15040
C2346       C  0.59790844  0.75969609  0.06090093    -0.23910
H2347       H  0.63592369  0.74161238  0.42182519     0.05260
H2348       H  0.66864347  0.72360964  0.43976808     0.08480
H2349       H  0.66715036  0.76495092  0.43538300     0.08480
H2350       H  0.60600525  0.74105894  0.07624317     0.08470
H2351       H  0.57244879  0.75970368  0.06075738     0.08470
H2352       H  0.60561735  0.78195392  0.07053983     0.05240
C2353       C  0.89287917  0.52595417  0.00401659    -0.20560
C2354       C  0.90818490  0.99793172  0.49983994    -0.07130
C2355       C  0.89055605  0.97105085  0.49537250     0.13740
C2356       C  0.85842163  0.97317516  0.49536423    -0.20620
C2357       C  0.84301467  0.00122016  0.49970819    -0.07130
C2358       C  0.86074796  0.52808116  0.00399618     0.13730
C2359       C  0.84641254  0.55923942  0.00889592    -0.23970
H2360       H  0.90608116  0.54663973  0.00752388     0.15020
H2361       H  0.84522661  0.95248913  0.49183644     0.15040
C2362       C  0.90491649  0.93993818  0.49026108    -0.23910
H2363       H  0.86397285  0.57729155  0.01243651     0.05260
H2364       H  0.83170397  0.55902049  0.02967136     0.08480
H2365       H  0.83253104  0.56584810  0.48836181     0.08480
H2366       H  0.91912372  0.93358808  0.01088942     0.08470
H2367       H  0.91983568  0.94038247  0.46964605     0.08470
H2368       H  0.88737163  0.92194327  0.48634784     0.05240
C2369       C  0.64245065  0.52350574  0.48811003    -0.20560
C2370       C  0.65805148  0.99821098  0.50061106    -0.07130
C2371       C  0.64135731  0.97391985  0.01338009     0.13740
C2372       C  0.60920567  0.97577687  0.01301941    -0.20620
C2373       C  0.59313235  0.00100713  0.50035761    -0.07130
C2374       C  0.61030680  0.52528209  0.48773190     0.13730
C2375       C  0.59527207  0.55277459  0.47299155    -0.23970
H2376       H  0.65554558  0.54199624  0.47818931     0.15020
H2377       H  0.59604816  0.95736854  0.02301630     0.15040
C2378       C  0.65636053  0.94648923  0.02823745    -0.23910
H2379       H  0.61242276  0.56841108  0.46275952     0.05260
H2380       H  0.58236626  0.56613318  0.49047093     0.08480
H2381       H  0.57950785  0.54526501  0.45429105     0.08480
H2382       H  0.67216332  0.95408327  0.04686776     0.08470
H2383       H  0.66922877  0.93302690  0.01081111     0.08470
H2384       H  0.63918946  0.93094516  0.03857806     0.05240
C2385       C  0.73925727  0.72365369  0.13911205    -0.20560
C2386       C  0.74873226  0.75013952  0.15453533    -0.07130
C2387       C  0.75800056  0.77586720  0.13767680     0.13740
C2388       C  0.75794473  0.77438792  0.10547003    -0.20620
C2389       C  0.74894499  0.74768740  0.08960753    -0.07130
C2390       C  0.73940159  0.72188857  0.10686420     0.13730
C2391       C  0.72883207  0.69254546  0.09189510    -0.23970
H2392       H  0.73203703  0.70410709  0.15247707     0.15020
H2393       H  0.76520710  0.79426065  0.09266166     0.15040
C2394       C  0.76729162  0.80509182  0.15367422    -0.23910
H2395       H  0.72098990  0.67562220  0.10909945     0.05260
H2396       H  0.74806804  0.68180672  0.07904912     0.08480
H2397       H  0.70924180  0.69727039  0.07612465     0.08480
H2398       H  0.78766952  0.80087157  0.16854015     0.08470
H2399       H  0.74805027  0.81361151  0.16807631     0.08470
H2400       H  0.77324469  0.82328535  0.13702190     0.05240
C2401       C  0.72353362  0.74686800  0.38931704    -0.20560
C2402       C  0.75144225  0.75108176  0.40461016    -0.07130
C2403       C  0.77849575  0.75509154  0.38758076     0.13740
C2404       C  0.77681937  0.75516214  0.35530018    -0.20620
C2405       C  0.74859516  0.75135521  0.33960065    -0.07130
C2406       C  0.72146597  0.74722930  0.35717700     0.13730
C2407       C  0.69010341  0.74285938  0.34286424    -0.23970
H2408       H  0.70316812  0.74320775  0.40267415     0.15020
H2409       H  0.79776856  0.75820453  0.34236153     0.15040
C2410       C  0.80911850  0.75862309  0.40348707    -0.23910
H2411       H  0.67203669  0.73946226  0.36045636     0.05260
H2412       H  0.69018193  0.72228303  0.32779242     0.08480
H2413       H  0.68350356  0.76347330  0.32950401     0.08480
H2414       H  0.81398135  0.73807390  0.41764096     0.08470
H2415       H  0.80871106  0.77915155  0.41861494     0.08470
H2416       H  0.82813101  0.76124566  0.38678533     0.05240
C2417       C  0.72871011  0.51256763  0.14152884    -0.20560
C2418       C  0.75425847  0.99963394  0.15716906    -0.07130
C2419       C  0.77838082  0.98614567  0.13984933     0.13740
C2420       C  0.77652349  0.98614280  0.10759349    -0.20620
C2421       C  0.75158233  0.99963411  0.09225294    -0.07130
C2422       C  0.72708887  0.51280445  0.10932848     0.13730
C2423       C  0.69916103  0.52624921  0.09365466    -0.23970
H2424       H  0.71009110  0.52273809  0.15456833     0.15020
H2425       H  0.79485810  0.97591005  0.09417981     0.15040
C2426       C  0.80577366  0.97103555  0.15490353    -0.23910
H2427       H  0.68190739  0.53453418  0.11052317     0.05260
H2428       H  0.68807796  0.50860095  0.07891888     0.08480
H2429       H  0.70591695  0.54594758  0.07923178     0.08480
H2430       H  0.79798312  0.95279713  0.17070490     0.08470
H2431       H  0.81938410  0.98827794  0.16782096     0.08470
H2432       H  0.82131942  0.96031713  0.13772698     0.05240
C2433       C  0.77705968  0.99642589  0.35920257    -0.20880
C2434       C  0.74924614  0.00061612  0.34291915    -0.07130
C2435       C  0.72144339  0.50465229  0.35998131     0.13740
C2436       C  0.72266653  0.50440096  0.39225422    -0.20620
C2437       C  0.75051052  0.99999402  0.40795381    -0.07130
C2438       C  0.77796340  0.99604819  0.39145112     0.13730
C2439       C  0.80823819  0.99182709  0.40795377    -0.23970
H2440       H  0.79833644  0.99332428  0.34673205     0.15020
H2441       H  0.70178889  0.50749875  0.40543783     0.15040
C2442       C  0.69049100  0.50945582  0.34491778    -0.23910
H2443       H  0.82763132  0.98931870  0.39162273     0.05260
H2444       H  0.80747148  0.97096839  0.42239475     0.08480
H2445       H  0.81274866  0.51198170  0.42282581     0.08480
H2446       H  0.68450928  0.98908357  0.33084124     0.08470
H2447       H  0.69095627  0.53020985  0.33031149     0.08470
H2448       H  0.67195658  0.51279805  0.36209464     0.05240
C2449       C  0.77404834  0.85793256  0.26019317    -0.20560
C2450       C  0.74853740  0.84318866  0.24700750    -0.07130
C2451       C  0.72419527  0.86125188  0.23491588     0.13740
C2452       C  0.72622557  0.89328326  0.23630093    -0.20620
C2453       C  0.75177499  0.90802874  0.24943073    -0.07130
C2454       C  0.77600296  0.88994958  0.26173669     0.13730
C2455       C  0.80366480  0.90387943  0.27737022    -0.23970
H2456       H  0.79256663  0.84425465  0.26979505     0.15020
H2457       H  0.70769287  0.90696063  0.22672962     0.15040
C2458       C  0.69624708  0.84728489  0.21985395    -0.23910
H2459       H  0.81911346  0.88616581  0.28734118     0.05260
H2460       H  0.79615151  0.91913918  0.29642021     0.08480
H2461       H  0.81734679  0.91697376  0.26052838     0.08480
H2462       H  0.68290406  0.83424828  0.23701366     0.08470
H2463       H  0.70335108  0.83194478  0.20073101     0.08470
H2464       H  0.68061568  0.86497521  0.21012925     0.05240
C2465       C  0.72437985  0.60838544  0.25385098    -0.20560
C2466       C  0.75246087  0.59305176  0.24918348    -0.07130
C2467       C  0.77918088  0.61076869  0.24390031     0.13740
C2468       C  0.77685014  0.64283716  0.24336517    -0.20620
C2469       C  0.74874144  0.65817369  0.24794847    -0.07130
C2470       C  0.72204870  0.64044004  0.25337263     0.13730
C2471       C  0.69088741  0.65462479  0.25909730    -0.23970
H2472       H  0.70385386  0.59516747  0.25809082     0.15020
H2473       H  0.79738495  0.65604852  0.23915442     0.15040
C2474       C  0.81033882  0.59652181  0.23834900    -0.23910
H2475       H  0.67311424  0.63711968  0.26375963     0.05260
H2476       H  0.68317729  0.66754873  0.23852279     0.08480
H2477       H  0.69196817  0.67000280  0.27946912     0.08480
H2478       H  0.80931919  0.58109582  0.21801396     0.08470
H2479       H  0.81791734  0.58361219  0.25898028     0.08470
H2480       H  0.82816050  0.61399459  0.23374641     0.05240
C2481       C  0.97602412  0.76506347  0.10983652    -0.20560
C2482       C  0.99827069  0.74675625  0.09524791    -0.07130
C2483       C  0.51844109  0.72871895  0.11339580     0.13740
C2484       C  0.51588207  0.72974874  0.14550015    -0.20620
C2485       C  0.99380771  0.74818108  0.16011677    -0.07130
C2486       C  0.97331576  0.76582198  0.14201493     0.13730
C2487       C  0.94924375  0.78620391  0.15636806    -0.23970
H2488       H  0.96049030  0.77872241  0.09589184     0.15020
H2489       H  0.53160701  0.71617149  0.15932972     0.15040
C2490       C  0.54377589  0.70904424  0.10020945    -0.23910
H2491       H  0.93625070  0.79939403  0.13877056     0.05260
H2492       H  0.96030470  0.80279344  0.17231265     0.08480
H2493       H  0.93245580  0.77216267  0.16914181     0.08480
H2494       H  0.56608330  0.71589909  0.11059048     0.08470
H2495       H  0.54621262  0.71097335  0.07501906     0.08470
H2496       H  0.53947967  0.68470366  0.10588884     0.05240
C2497       C  0.51639333  0.72964046  0.35997386    -0.20560
C2498       C  0.99894698  0.75221600  0.34508671    -0.07130
C2499       C  0.98357071  0.77470920  0.36271241     0.13740
C2500       C  0.98536106  0.77353239  0.39495242    -0.20620
C2501       C  0.00184722  0.75021012  0.41003649    -0.07130
C2502       C  0.51787679  0.72811405  0.39218753     0.13730
C2503       C  0.53720488  0.70326492  0.40667469    -0.23970
H2504       H  0.52848471  0.71271689  0.34623816     0.15020
H2505       H  0.97334296  0.79066605  0.40846786     0.15040
C2506       C  0.96605041  0.80046698  0.34760136    -0.23910
H2507       H  0.54973327  0.68955341  0.38915013     0.05260
H2508       H  0.52241167  0.68727046  0.41957753     0.08480
H2509       H  0.55451178  0.71356085  0.42239235     0.08480
H2510       H  0.94647916  0.79122107  0.33407353     0.08470
H2511       H  0.98152578  0.81329520  0.33211607     0.08470
H2512       H  0.95662445  0.81682214  0.36479780     0.05240
C2513       C  0.52393721  0.98661472  0.14201067    -0.20560
C2514       C  0.49981658  0.00147713  0.15756252    -0.07130
C2515       C  0.97649408  0.51654276  0.14020896     0.13740
C2516       C  0.97795867  0.51604922  0.10795958    -0.20620
C2517       C  0.50156496  0.50046681  0.09260027    -0.07130
C2518       C  0.52518390  0.98590616  0.10977867     0.13730
C2519       C  0.55183113  0.97012519  0.09420244    -0.23970
H2520       H  0.54179903  0.97516722  0.15515224     0.15020
H2521       H  0.96027467  0.52750044  0.09456495     0.15040
C2522       C  0.95055584  0.53393051  0.15527223    -0.23910
H2523       H  0.56865461  0.96093096  0.11113502     0.05260
H2524       H  0.56401376  0.98658914  0.07925202     0.08480
H2525       H  0.54345884  0.95066708  0.08004801     0.08480
H2526       H  0.95996836  0.55149866  0.17122120     0.08470
H2527       H  0.93561519  0.51795597  0.16803999     0.08470
H2528       H  0.93583140  0.54584128  0.13810646     0.05240
C2529       C  0.98645489  0.97681702  0.35768205    -0.20560
C2530       C  0.50171048  0.50053390  0.34264819    -0.07130
C2531       C  0.51623054  0.52365700  0.36008857     0.13740
C2532       C  0.51532438  0.52235918  0.39229969    -0.20620
C2533       C  0.50058318  0.49828714  0.40755720    -0.07130
C2534       C  0.98591280  0.97515249  0.38990986     0.13730
C2535       C  0.96887139  0.94912690  0.40463301    -0.23970
H2536       H  0.97517645  0.95928435  0.34404564     0.15020
H2537       H  0.52647111  0.54016706  0.40566321     0.15040
C2538       C  0.53184239  0.55020106  0.34480893    -0.23910
H2539       H  0.95731124  0.93439642  0.38724451     0.05260
H2540       H  0.95095263  0.95830559  0.42029573     0.08480
H2541       H  0.98512401  0.93437607  0.41765299     0.08480
H2542       H  0.51519105  0.56239851  0.32972617     0.08470
H2543       H  0.55144694  0.54178917  0.33087166     0.08470
H2544       H  0.54092944  0.56687690  0.36188573     0.05240
C2545       C  0.52457734  0.85781550  0.24695839    -0.20560
C2546       C  0.99624773  0.84321904  0.25156883    -0.07130
C2547       C  0.96960156  0.86164915  0.25573150     0.13740
C2548       C  0.97222513  0.89364169  0.25508687    -0.20620
C2549       C  0.00055538  0.90823939  0.25047076    -0.07130
C2550       C  0.52720113  0.88981594  0.24635858     0.13730
C2551       C  0.55860948  0.90320232  0.24100809    -0.23970
H2552       H  0.54509126  0.84406504  0.24366285     0.15020
H2553       H  0.95171643  0.90739154  0.25842317     0.15040
C2554       C  0.93818619  0.84830073  0.26119103    -0.23910
H2555       H  0.57637033  0.88519769  0.23747807     0.05260
H2556       H  0.56583697  0.91692589  0.26130857     0.08480
H2557       H  0.55819667  0.91766837  0.22009235     0.08480
H2558       H  0.93860778  0.83396674  0.28220094     0.08470
H2559       H  0.93093040  0.83446847  0.24097183     0.08470
H2560       H  0.92042894  0.86632429  0.26464134     0.05240
C2561       C  0.52343731  0.64318032  0.26064902    -0.20560
C2562       C  0.99600535  0.65821690  0.25239326    -0.07130
C2563       C  0.97043232  0.64038088  0.24305257     0.13740
C2564       C  0.97299973  0.60834379  0.24277782    -0.20620
C2565       C  0.00040044  0.59329819  0.25117893    -0.07130
C2566       C  0.52613880  0.61117806  0.26001331     0.13730
C2567       C  0.55656131  0.59715116  0.26920338    -0.23970
H2568       H  0.54312013  0.65660998  0.26776282     0.15020
H2569       H  0.95334679  0.59491654  0.23557205     0.15040
C2570       C  0.94052259  0.65456894  0.23252020    -0.23910
H2571       H  0.57346808  0.61472171  0.27654693     0.05260
H2572       H  0.56668480  0.58465746  0.24939507     0.08480
H2573       H  0.55335353  0.58135819  0.28877384     0.08480
H2574       H  0.94473262  0.67023810  0.21298053     0.08470
H2575       H  0.92965335  0.66726113  0.25179393     0.08470
H2576       H  0.92382529  0.63705227  0.22457104     0.05240
O2577       O  0.97571762  0.50030538  0.79451272    -0.74680
O2578       O  0.97465919  0.00140853  0.70654081    -0.74720
O2579       O  0.97536844  0.95712320  0.74991348    -0.74770
O2580       O  0.97522851  0.54471852  0.75120657    -0.74820
O2581       O  0.52629201  0.54452838  0.74993443    -0.74750
O2582       O  0.52640824  0.95696296  0.75032962    -0.74730
O2583       O  0.52575423  0.50041098  0.70603562    -0.74710
O2584       O  0.52702347  0.00129492  0.79414309    -0.74770
Ni2585     Ni  0.97345058  0.00090476  0.75054737     1.25410
Ni2586     Ni  0.52821335  0.00076568  0.75007862     1.25360
C2587       C  0.50151316  0.50085091  0.80877911     0.87490
C2588       C  0.49998397  0.00117767  0.69170432     0.87430
C2589       C  0.00094292  0.94242163  0.75013298     0.87450
C2590       C  0.00078117  0.55919765  0.75080389     0.87630
O2591       O  0.52282193  0.75086080  0.79606560    -0.74680
O2592       O  0.52008309  0.74967353  0.70815316    -0.74720
O2593       O  0.52136663  0.79422148  0.75174271    -0.74770
O2594       O  0.52123955  0.70665646  0.75231947    -0.74820
O2595       O  0.97017657  0.70707340  0.75393137    -0.74750
O2596       O  0.97034062  0.79461106  0.75251902    -0.74730
O2597       O  0.96889482  0.74995024  0.70917866    -0.74710
O2598       O  0.97159985  0.75201565  0.79735781    -0.74770
Ni2599     Ni  0.52318562  0.75037398  0.75204221     1.25410
Ni2600     Ni  0.96842231  0.75090821  0.75331876     1.25360
C2601       C  0.99767644  0.75185846  0.81117483     0.87490
C2602       C  0.99412479  0.74947468  0.69414024     0.87430
C2603       C  0.99584012  0.80903423  0.75200945     0.87450
C2604       C  0.99564324  0.69229948  0.75289524     0.87630
O2605       O  0.72516269  0.50087787  0.79288840    -0.74680
O2606       O  0.72766575  0.00041303  0.70510442    -0.74720
O2607       O  0.72629224  0.95681380  0.74900192    -0.74770
O2608       O  0.72685705  0.54454167  0.74890329    -0.74820
O2609       O  0.77786410  0.54392102  0.75076068    -0.74750
O2610       O  0.77737583  0.95642544  0.75077234    -0.74730
O2611       O  0.77878911  0.49988053  0.70672961    -0.74710
O2612       O  0.77614881  0.00037747  0.79487210    -0.74770
Ni2613     Ni  0.72468180  0.00069473  0.74893967     1.25410
Ni2614     Ni  0.77935378  0.00014223  0.75085813     1.25360
C2615       C  0.75011320  0.00067694  0.80857981     0.87490
C2616       C  0.75359647  0.99989481  0.69132305     0.87430
C2617       C  0.75183518  0.94207007  0.74992935     0.87450
C2618       C  0.75252322  0.55885365  0.74962271     0.87630
O2619       O  0.77418373  0.75094018  0.79090423    -0.74680
O2620       O  0.77425121  0.75072814  0.70286345    -0.74720
O2621       O  0.77399228  0.79460369  0.74692668    -0.74770
O2622       O  0.77415177  0.70685395  0.74692587    -0.74820
O2623       O  0.72311946  0.70715196  0.74693209    -0.74750
O2624       O  0.72287502  0.79462674  0.74595747    -0.74730
O2625       O  0.72295602  0.75008036  0.70244434    -0.74710
O2626       O  0.72316190  0.75158560  0.79031460    -0.74770
Ni2627     Ni  0.77599075  0.75076184  0.74688303     1.25410
Ni2628     Ni  0.72123182  0.75087535  0.74639091     1.25360
C2629       C  0.74855823  0.75130369  0.80528545     0.87490
C2630       C  0.74863265  0.75037205  0.68827295     0.87430
C2631       C  0.74832932  0.80915648  0.74639797     0.87450
C2632       C  0.74856921  0.69237738  0.74724806     0.87630
O2633       O  0.50142717  0.97365475  0.95652104    -0.74680
O2634       O  0.00220989  0.97443075  0.54445825    -0.74720
O2635       O  0.95816244  0.97351782  0.00081762    -0.74770
O2636       O  0.54530976  0.97483303  0.50016307    -0.74820
O2637       O  0.54403462  0.52574529  0.00058412    -0.74750
O2638       O  0.95630706  0.52386086  0.49947463    -0.74730
O2639       O  0.49970260  0.52542640  0.54409756    -0.74710
O2640       O  0.00055216  0.52422224  0.95600822    -0.74770
Ni2641     Ni  0.50204993  0.97242937  0.00051485     1.25410
Ni2642     Ni  0.50004693  0.52664594  0.50003144     1.25360
C2643       C  0.50062541  0.49852498  0.94167874     0.87490
C2644       C  0.00120031  0.50009439  0.55872357     0.87430
C2645       C  0.94292476  0.99861012  0.00001297     0.87450
C2646       C  0.55970282  0.00078179  0.00027296     0.87630
O2647       O  0.00234683  0.72396113  0.95820433    -0.74680
O2648       O  0.00032973  0.72208662  0.54614769    -0.74720
O2649       O  0.95728994  0.72201127  0.00074753    -0.74770
O2650       O  0.54547517  0.72414805  0.50320153    -0.74820
O2651       O  0.54393531  0.77520205  0.00431988    -0.74750
O2652       O  0.95575990  0.77299230  0.50268022    -0.74730
O2653       O  0.99909843  0.77310111  0.54747816    -0.74710
O2654       O  0.00037213  0.77487654  0.95930731    -0.74770
Ni2655     Ni  0.00142567  0.72124704  0.00208157     1.25410
Ni2656     Ni  0.99975877  0.77586798  0.50349928     1.25360
C2657       C  0.00171573  0.74963632  0.94418250     0.87490
C2658       C  0.99952744  0.74727611  0.56130419     0.87430
C2659       C  0.94202363  0.74716148  0.00119879     0.87450
C2660       C  0.55914739  0.75003565  0.00382651     0.87630
O2661       O  0.79363681  0.52600948  0.00005107    -0.74680
O2662       O  0.70587442  0.52429615  0.50031184    -0.74720
O2663       O  0.74985661  0.52517554  0.54415133    -0.74770
O2664       O  0.74945770  0.52534020  0.95620477    -0.74820
O2665       O  0.75140675  0.97428469  0.95588558    -0.74750
O2666       O  0.75168180  0.97412430  0.54390291    -0.74730
O2667       O  0.70783601  0.97324098  0.00013445    -0.74710
O2668       O  0.79491361  0.97522166  0.49973419    -0.74770
Ni2669     Ni  0.74960954  0.52704782  0.50019056     1.25410
Ni2670     Ni  0.75178377  0.97241659  0.99988730     1.25360
C2671       C  0.80935972  0.00116062  0.99984082     0.87490
C2672       C  0.69206090  0.99850594  0.50043398     0.87430
C2673       C  0.75079369  0.99964807  0.55843723     0.87450
C2674       C  0.75061116  0.99985777  0.94168297     0.87630
O2675       O  0.75040396  0.72474163  0.95209677    -0.74680
O2676       O  0.74971374  0.72302638  0.54003575    -0.74720
O2677       O  0.70583602  0.72471125  0.99566054    -0.74770
O2678       O  0.79420609  0.72312219  0.49658472    -0.74820
O2679       O  0.79469535  0.77409568  0.99883759    -0.74750
O2680       O  0.70648666  0.77576114  0.49671323    -0.74730
O2681       O  0.74975675  0.77389051  0.54147573    -0.74710
O2682       O  0.75174931  0.77580132  0.95344313    -0.74770
Ni2683     Ni  0.75001255  0.72208654  0.99600719     1.25410
Ni2684     Ni  0.75068373  0.77670655  0.49757796     1.25360
C2685       C  0.75147193  0.75054212  0.93838740     0.87490
C2686       C  0.74940272  0.74809820  0.55537618     0.87430
C2687       C  0.69168357  0.75049600  0.99647060     0.87450
C2688       C  0.80896014  0.74838822  0.99838622     0.87630
C2689       C  0.89178784  0.76415381  0.52200002    -0.20560
C2690       C  0.90800944  0.74655716  0.00037626    -0.07130
C2691       C  0.89151367  0.72932465  0.97823267     0.13740
C2692       C  0.85919745  0.73000838  0.97842083    -0.20620
C2693       C  0.84297918  0.74788615  0.99983087    -0.07130
C2694       C  0.85949658  0.76487798  0.52216882     0.13730
C2695       C  0.84322241  0.78285882  0.54694428    -0.23970
H2696       H  0.90450115  0.77712924  0.53910643     0.15020
H2697       H  0.84649840  0.71698108  0.96136379     0.15040
C2698       C  0.90784523  0.71125847  0.95358213    -0.23910
H2699       H  0.85968954  0.79322580  0.56353353     0.05260
H2700       H  0.82775506  0.76753844  0.55995530     0.08480
H2701       H  0.82957680  0.80171497  0.53659516     0.08480
H2702       H  0.92176343  0.69269286  0.96411134     0.08470
H2703       H  0.92307702  0.72660482  0.94032586     0.08470
H2704       H  0.89140342  0.70052985  0.93720479     0.05240
C2705       C  0.60717587  0.74704319  0.97418942    -0.20560
C2706       C  0.59300844  0.75083862  0.00281445    -0.07130
C2707       C  0.61140276  0.75520732  0.52937719     0.13740
C2708       C  0.64360007  0.75513885  0.52660709    -0.20620
C2709       C  0.65774365  0.75106024  0.99796177    -0.07130
C2710       C  0.63930586  0.74730655  0.97145248     0.13730
C2711       C  0.65352404  0.74413841  0.94024834    -0.23970
H2712       H  0.59298731  0.74409244  0.95383630     0.15020
H2713       H  0.65777197  0.75811967  0.54698546     0.15040
C2714       C  0.59790959  0.75969565  0.56089891    -0.23910
H2715       H  0.63592163  0.74161257  0.92182767     0.05260
H2716       H  0.66864114  0.72360971  0.93977090     0.08480
H2717       H  0.66714798  0.76495150  0.93538548     0.08480
H2718       H  0.60600633  0.74105843  0.57624111     0.08470
H2719       H  0.57244994  0.75970334  0.56075548     0.08470
H2720       H  0.60561859  0.78195343  0.57053785     0.05240
C2721       C  0.89276331  0.52599826  0.50400921    -0.20560
C2722       C  0.90873525  0.99838508  0.99981160    -0.07130
C2723       C  0.89115926  0.97146059  0.99536745     0.13740
C2724       C  0.85902462  0.97350991  0.99534691    -0.20620
C2725       C  0.84354871  0.00151263  0.99967232    -0.07130
C2726       C  0.86063164  0.52812880  0.50398722     0.13730
C2727       C  0.84629788  0.55928872  0.50888002    -0.23970
H2728       H  0.90596772  0.54668271  0.50751387     0.15020
H2729       H  0.84588090  0.95278911  0.99183578     0.15040
C2730       C  0.90557094  0.94036103  0.99030391    -0.23910
H2731       H  0.86385942  0.57734066  0.51241525     0.05260
H2732       H  0.83159005  0.55907540  0.52965608     0.08480
H2733       H  0.83264676  0.56580357  0.98837858     0.08480
H2734       H  0.91848062  0.93312581  0.51082564     0.08470
H2735       H  0.92050172  0.94079896  0.96969791     0.08470
H2736       H  0.88806006  0.92233272  0.98639804     0.05240
C2737       C  0.64257147  0.52349444  0.98812446    -0.20560
C2738       C  0.65859804  0.99807315  0.00058360    -0.07130
C2739       C  0.64085772  0.97399990  0.51337456     0.13740
C2740       C  0.60870512  0.97577258  0.51300446    -0.20620
C2741       C  0.59369510  0.00104375  0.00034597    -0.07130
C2742       C  0.61042752  0.52527610  0.98774947     0.13730
C2743       C  0.59539550  0.55277530  0.97301931    -0.23970
H2744       H  0.65566848  0.54198491  0.97820646     0.15020
H2745       H  0.59559313  0.95731174  0.52296456     0.15040
C2746       C  0.65590710  0.94657863  0.52820598    -0.23910
H2747       H  0.61254784  0.56841474  0.96279454     0.05260
H2748       H  0.58248950  0.56612744  0.99050353     0.08480
H2749       H  0.57963162  0.54527411  0.95431517     0.08480
H2750       H  0.67171395  0.95418184  0.54682909     0.08470
H2751       H  0.66877122  0.93313467  0.51076294     0.08470
H2752       H  0.63876600  0.93100743  0.53855486     0.05240
C2753       C  0.73922643  0.72365070  0.63910806    -0.20560
C2754       C  0.74869709  0.75013646  0.65453403    -0.07130
C2755       C  0.75797543  0.77586255  0.63767833     0.13740
C2756       C  0.75793064  0.77438267  0.60547180    -0.20620
C2757       C  0.74893375  0.74768279  0.58960683    -0.07130
C2758       C  0.73938320  0.72188461  0.60686045     0.13730
C2759       C  0.72881972  0.69254095  0.59188815    -0.23970
H2760       H  0.73200146  0.70410437  0.65247088     0.15020
H2761       H  0.76519935  0.79425443  0.59266557     0.15040
C2762       C  0.76726527  0.80508651  0.65367808    -0.23910
H2763       H  0.72097252  0.67561753  0.60909000     0.05260
H2764       H  0.74806046  0.68180292  0.57904866     0.08480
H2765       H  0.70923448  0.69726490  0.57611118     0.08480
H2766       H  0.78763930  0.80086482  0.66854886     0.08470
H2767       H  0.74802097  0.81360837  0.66807531     0.08470
H2768       H  0.77322452  0.82327929  0.63702718     0.05240
C2769       C  0.72351975  0.74686548  0.88932128    -0.20560
C2770       C  0.75143142  0.75107955  0.90460889    -0.07130
C2771       C  0.77848089  0.75509093  0.88757377     0.13740
C2772       C  0.77679709  0.75516331  0.85529338    -0.20620
C2773       C  0.74856921  0.75135650  0.83959947    -0.07130
C2774       C  0.72144457  0.74722903  0.85718166     0.13730
C2775       C  0.69007875  0.74286114  0.84287575    -0.23970
H2776       H  0.70315804  0.74320322  0.90268210     0.15020
H2777       H  0.79774354  0.75820637  0.84235062     0.15040
C2778       C  0.80910709  0.75862215  0.90347362    -0.23910
H2779       H  0.67201534  0.73946716  0.86047186     0.05260
H2780       H  0.69015209  0.72228355  0.82780564     0.08480
H2781       H  0.68347849  0.76347468  0.82951506     0.08480
H2782       H  0.81397348  0.73807243  0.91762570     0.08470
H2783       H  0.80870265  0.77914994  0.91860249     0.08470
H2784       H  0.82811586  0.76124576  0.88676781     0.05240
C2785       C  0.72865846  0.51259313  0.64154742    -0.20560
C2786       C  0.75394488  0.99966902  0.65715930    -0.07130
C2787       C  0.77804222  0.98619644  0.63979054     0.13740
C2788       C  0.77611814  0.98619143  0.60753577    -0.20620
C2789       C  0.75113448  0.99966524  0.59224466    -0.07130
C2790       C  0.72701384  0.51283676  0.60934793     0.13730
C2791       C  0.69907596  0.52628641  0.59369651    -0.23970
H2792       H  0.71004908  0.52276118  0.65460249     0.15020
H2793       H  0.79442806  0.97596422  0.59408433     0.15040
C2794       C  0.80547344  0.97110160  0.65479110    -0.23910
H2795       H  0.68183510  0.53456957  0.61057899     0.05260
H2796       H  0.68798121  0.50864167  0.57896528     0.08480
H2797       H  0.70582322  0.54598689  0.57927235     0.08480
H2798       H  0.79772531  0.95284771  0.67059550     0.08470
H2799       H  0.81908933  0.98834849  0.66769684     0.08470
H2800       H  0.82100007  0.96040655  0.63758252     0.05240
C2801       C  0.77706312  0.99638256  0.85910716    -0.20880
C2802       C  0.74919241  0.00058348  0.84292651    -0.07130
C2803       C  0.72152355  0.50462150  0.85999651     0.13740
C2804       C  0.72276161  0.50436154  0.89226851    -0.20620
C2805       C  0.75071600  0.99997035  0.90795964    -0.07130
C2806       C  0.77809496  0.99600736  0.89134769     0.13730
C2807       C  0.80843382  0.99177593  0.90772750    -0.23970
H2808       H  0.79829354  0.99327403  0.84656040     0.15020
H2809       H  0.70188970  0.50745349  0.90546251     0.15040
C2810       C  0.69056293  0.50942417  0.84494939    -0.23910
H2811       H  0.82776049  0.98926631  0.89131851     0.05260
H2812       H  0.80772024  0.97091395  0.92216689     0.08480
H2813       H  0.81285635  0.51194663  0.92280138     0.08480
H2814       H  0.68443594  0.98904177  0.83106231     0.08470
H2815       H  0.69101726  0.53018279  0.83034919     0.08470
H2816       H  0.67203623  0.51275807  0.86213613     0.05240
C2817       C  0.77390549  0.85795335  0.76019261    -0.20560
C2818       C  0.74841234  0.84318671  0.74700097    -0.07130
C2819       C  0.72405139  0.86122795  0.73491144     0.13740
C2820       C  0.72604684  0.89326221  0.73630472    -0.20620
C2821       C  0.75158178  0.90802923  0.74943620    -0.07130
C2822       C  0.77582673  0.88997145  0.76174192     0.13730
C2823       C  0.80347290  0.90392511  0.77738259    -0.23970
H2824       H  0.79243650  0.84429228  0.76979419     0.15020
H2825       H  0.70750213  0.90692467  0.72673504     0.15040
C2826       C  0.69612144  0.84723448  0.71984056    -0.23910
H2827       H  0.81893237  0.88622485  0.78736077     0.05260
H2828       H  0.79594180  0.91918150  0.79642826     0.08480
H2829       H  0.81715102  0.91702726  0.76054388     0.08480
H2830       H  0.68278850  0.83417988  0.73699427     0.08470
H2831       H  0.70324639  0.83190600  0.70071585     0.08470
H2832       H  0.68047349  0.86491068  0.71011640     0.05240
C2833       C  0.72439984  0.60838044  0.75386321    -0.20560
C2834       C  0.75248203  0.59305115  0.74919296    -0.07130
C2835       C  0.77919954  0.61077219  0.74390874     0.13740
C2836       C  0.77686432  0.64284107  0.74337418    -0.20620
C2837       C  0.74875300  0.65817235  0.74795742    -0.07130
C2838       C  0.72206344  0.64043377  0.75338423     0.13730
C2839       C  0.69089856  0.65461086  0.75911072    -0.23970
H2840       H  0.70387594  0.59515972  0.75810435     0.15020
H2841       H  0.79739617  0.65605674  0.73916260     0.15040
C2842       C  0.81035877  0.59652912  0.73835587    -0.23910
H2843       H  0.67313034  0.63710189  0.76377718     0.05260
H2844       H  0.68318189  0.66752963  0.73853532     0.08480
H2845       H  0.69197697  0.66999115  0.77948093     0.08480
H2846       H  0.80934080  0.58110579  0.71801872     0.08470
H2847       H  0.81793806  0.58361714  0.75898540     0.08470
H2848       H  0.82817859  0.61400447  0.73375585     0.05240
C2849       C  0.97602497  0.76506295  0.60983645    -0.20560
C2850       C  0.99827161  0.74675589  0.59524764    -0.07130
C2851       C  0.51844179  0.72871822  0.61339538     0.13740
C2852       C  0.51588234  0.72974719  0.64549970    -0.20620
C2853       C  0.99380774  0.74817905  0.66011653    -0.07130
C2854       C  0.97331624  0.76582070  0.64201489     0.13730
C2855       C  0.94924440  0.78620264  0.65636831    -0.23970
H2856       H  0.96049139  0.77872230  0.59589191     0.15020
H2857       H  0.53160712  0.71616959  0.65932911     0.15040
C2858       C  0.54377681  0.70904387  0.60020893    -0.23910
H2859       H  0.93625161  0.79939326  0.63877099     0.05260
H2860       H  0.96030549  0.80279173  0.67231327     0.08480
H2861       H  0.93245623  0.77216137  0.66914172     0.08480
H2862       H  0.56608409  0.71589868  0.61059026     0.08470
H2863       H  0.54621376  0.71097341  0.57501860     0.08470
H2864       H  0.53948065  0.68470317  0.60588786     0.05240
C2865       C  0.51639338  0.72963869  0.85997444    -0.20560
C2866       C  0.99894674  0.75221364  0.84508673    -0.07130
C2867       C  0.98357070  0.77470740  0.86271195     0.13740
C2868       C  0.98536120  0.77353144  0.89495204    -0.20620
C2869       C  0.00184735  0.75020952  0.91003668    -0.07130
C2870       C  0.51787700  0.72811314  0.89218815     0.13730
C2871       C  0.53720527  0.70326444  0.90667579    -0.23970
H2872       H  0.52848479  0.71271483  0.84623913     0.15020
H2873       H  0.97334314  0.79066543  0.90846711     0.15040
C2874       C  0.96605052  0.80046491  0.84760030    -0.23910
H2875       H  0.54973379  0.68955270  0.88915152     0.05260
H2876       H  0.52241217  0.68727008  0.91957889     0.08480
H2877       H  0.55451206  0.71356078  0.92239329     0.08480
H2878       H  0.94647925  0.79121878  0.83407265     0.08470
H2879       H  0.98152597  0.81329270  0.83211473     0.08470
H2880       H  0.95662461  0.81682047  0.86479636     0.05240
C2881       C  0.52376785  0.98657606  0.64195262    -0.20560
C2882       C  0.49967893  0.00143593  0.65755843    -0.07130
C2883       C  0.97643564  0.51656176  0.64022532     0.13740
C2884       C  0.97788066  0.51607240  0.60797477    -0.20620
C2885       C  0.50147592  0.50048931  0.59259954    -0.07130
C2886       C  0.52488361  0.98577451  0.60971384     0.13730
C2887       C  0.55152618  0.97005235  0.59407139    -0.23970
H2888       H  0.54170584  0.97520356  0.65505617     0.15020
H2889       H  0.96018990  0.52752706  0.59459205     0.15040
C2890       C  0.95050967  0.53395198  0.65530675    -0.23910
H2891       H  0.56845562  0.96097152  0.61096053     0.05260
H2892       H  0.56358194  0.98652248  0.57902406     0.08480
H2893       H  0.54317045  0.95052544  0.58000382     0.08480
H2894       H  0.95993498  0.55151566  0.67125312     0.08470
H2895       H  0.93557343  0.51797832  0.66808072     0.08470
H2896       H  0.93577757  0.54586846  0.63815152     0.05240
C2897       C  0.98661598  0.97702523  0.85779701    -0.20560
C2898       C  0.50175554  0.50053048  0.84264834    -0.07130
C2899       C  0.51628998  0.52364991  0.86008179     0.13740
C2900       C  0.51540772  0.52234710  0.89229351    -0.20620
C2901       C  0.50067438  0.49827485  0.90755797    -0.07130
C2902       C  0.98618653  0.97543837  0.89003093     0.13730
C2903       C  0.96915948  0.94946882  0.90487127    -0.23970
H2904       H  0.97527715  0.95946980  0.84424184     0.15020
H2905       H  0.52656586  0.54015169  0.90565188     0.15040
C2906       C  0.53189116  0.55019588  0.84479484    -0.23910
H2907       H  0.95749666  0.93473204  0.88755808     0.05260
H2908       H  0.95132418  0.95870847  0.92059323     0.08480
H2909       H  0.98543835  0.93470589  0.91784489     0.08480
H2910       H  0.51522905  0.56239573  0.82972583     0.08470
H2911       H  0.55148561  0.54178573  0.83084245     0.08470
H2912       H  0.54099046  0.56686922  0.86186756     0.05240
C2913       C  0.52457797  0.85780961  0.74695607    -0.20560
C2914       C  0.99624812  0.84321418  0.75156708    -0.07130
C2915       C  0.96960251  0.86164483  0.75572937     0.13740
C2916       C  0.97222726  0.89363736  0.75508543    -0.20620
C2917       C  0.00055864  0.90823485  0.75047234    -0.07130
C2918       C  0.52720325  0.88980989  0.74635745     0.13730
C2919       C  0.55861277  0.90319397  0.74100843    -0.23970
H2920       H  0.54509125  0.84405834  0.74365988     0.15020
H2921       H  0.95171838  0.90738711  0.75842048     0.15040
C2922       C  0.93818687  0.84829689  0.76118929    -0.23910
H2923       H  0.57637340  0.88518815  0.73748319     0.05260
H2924       H  0.56583833  0.91692050  0.76130758     0.08480
H2925       H  0.55820311  0.91765628  0.72009010     0.08480
H2926       H  0.93860836  0.83396332  0.78219953     0.08470
H2927       H  0.93093068  0.83446424  0.74097050     0.08470
H2928       H  0.92042993  0.86632074  0.76463939     0.05240
C2929       C  0.52343778  0.64317791  0.76064343    -0.20560
C2930       C  0.99600441  0.65821425  0.75239215    -0.07130
C2931       C  0.97042996  0.64037847  0.74305502     0.13740
C2932       C  0.97299698  0.60834153  0.74278124    -0.20620
C2933       C  0.00039892  0.59329634  0.75117857    -0.07130
C2934       C  0.52613926  0.61117594  0.76000705     0.13730
C2935       C  0.55656398  0.59714907  0.76918970    -0.23970
H2936       H  0.54312190  0.65660747  0.76775373     0.15020
H2937       H  0.95334298  0.59491403  0.73557885     0.15040
C2938       C  0.94051924  0.65456646  0.73252533    -0.23910
H2939       H  0.57347228  0.61471954  0.77652986     0.05260
H2940       H  0.56668297  0.58465599  0.74937870     0.08480
H2941       H  0.55336093  0.58135551  0.78876026     0.08480
H2942       H  0.94472736  0.67023501  0.71298472     0.08470
H2943       H  0.92965198  0.66725924  0.75179980     0.08470
H2944       H  0.92382104  0.63704969  0.72457832     0.05240
loop_ 
_geom_bond_atom_site_label_1 
_geom_bond_atom_site_label_2 
_geom_bond_distance 
_geom_bond_site_symmetry_2 
_ccdc_geom_bond_type 
O1         Ni745   1.915       .  S
O1         C1483   1.280       .  A
O2           Ni9   1.915       .  S
O2         C1484   1.280       .  A
O3           Ni9   1.915       .  S
O3           C13   1.282       .  A
O4         Ni745   1.917       .  S
O4           C14   1.283       .  A
O5         Ni746   1.914       .  S
O5         C1486   1.280       .  A
O6          Ni10   1.916       .  S
O6         C1485   1.280       .  A
O7         Ni746   1.918       .  S
O7          C748   1.282       .  A
O8          Ni10   1.918       .  S
O8          C747   1.281       .  A
Ni9         O737   1.915       .  S
Ni9         O740   1.917       .  S
Ni9       Ni1482   2.383       .  S
Ni10        O741   1.914       .  S
Ni10        O743   1.918       .  S
Ni10      Ni1481   2.383   1_455  S
C11        O1473   1.280   1_455  A
C11         O744   1.281       .  A
C11         C322   1.473       .  S
C12        O1474   1.280       .  A
C12         O743   1.282   1_655  A
C12         C306   1.485       .  S
C13        O1478   1.280       .  A
C13         C341   1.494       .  S
C14        O1477   1.280       .  A
C14         C357   1.490       .  S
O15         Ni23   1.915       .  S
O15        C1497   1.280   1_455  A
O16         Ni23   1.913       .  S
O16        C1498   1.281   1_455  A
O17         Ni23   1.918       .  S
O17        C1499   1.283   1_455  A
O18         Ni23   1.913       .  S
O18        C1500   1.282   1_455  A
O19         Ni24   1.917       .  S
O19          C28   1.281       .  A
O20         Ni24   1.913       .  S
O20          C27   1.279       .  A
O21         Ni24   1.920       .  S
O21          C26   1.281       .  A
O22         Ni24   1.920       .  S
O22          C25   1.281       .  A
Ni23      Ni1496   2.384   1_455  S
Ni24      Ni1495   2.384       .  S
C25        O1487   1.280       .  A
C25         C290   1.476       .  S
C26        O1488   1.281       .  A
C26         C277   1.481       .  S
C27        O1489   1.283       .  A
C27         C338   1.494       .  S
C28        O1490   1.282       .  A
C28         C354   1.490       .  S
O29        Ni773   1.912       .  S
O29         C775   1.279       .  A
O30         Ni37   1.911       .  S
O30          C40   1.281       .  A
O31         Ni37   1.919       .  S
O31          C41   1.282       .  A
O32        Ni773   1.919       .  S
O32          C42   1.283       .  A
O33        Ni774   1.914       .  S
O33          C42   1.279       .  A
O34         Ni38   1.913       .  S
O34          C41   1.279       .  A
O35        Ni774   1.919   1_565  S
O35         C776   1.281       .  A
O36         Ni38   1.920       .  S
O36          C39   1.283       .  A
Ni37        O765   1.912       .  S
Ni37        O768   1.919       .  S
Ni37        Ni38   2.380       .  S
Ni38        O769   1.914       .  S
Ni38        O771   1.920       .  S
C39         O765   1.279       .  A
C39         C226   1.495       .  S
C40         O771   1.281       .  A
C40         C210   1.486       .  S
C41         C245   1.488       .  S
C42         C258   1.495       .  S
O43         Ni51   1.917       .  S
O43          C53   1.282       .  A
O44         Ni51   1.916       .  S
O44          C54   1.280       .  A
O45         Ni51   1.918       .  S
O45          C55   1.282       .  A
O46         Ni51   1.921       .  S
O46          C56   1.283       .  A
O47         Ni52   1.913       .  S
O47          C56   1.279       .  A
O48         Ni52   1.914       .  S
O48          C55   1.280       .  A
O49         Ni52   1.913       .  S
O49          C54   1.279       .  A
O50         Ni52   1.912       .  S
O50          C53   1.280       .  A
Ni51        Ni52   2.383       .  S
C53         C197   1.492       .  S
C54         C178   1.467       .  S
C55         C242   1.487       .  S
C56         C261   1.495       .  S
O57         Ni65   1.915       .  S
O57         C803   1.280       .  A
O58       Ni1905   1.914       .  S
O58         C804   1.280       .  A
O59       Ni1537   1.911       .  S
O59          C69   1.279       .  A
O60        Ni433   1.909       .  S
O60         C438   1.281       .  A
O61        Ni434   1.910       .  S
O61         C806   1.279       .  A
O62       Ni1538   1.909   1_556  S
O62        C1173   1.281   1_546  A
O63         Ni66   1.918       .  S
O63        C1540   1.281       .  A
O64       Ni1906   1.917       .  S
O64        C1539   1.282   1_545  A
Ni65       O1898   1.914       .  S
Ni65       O1531   1.911   1_455  S
Ni65        O428   1.909       .  S
Ni65      Ni1170   2.385       .  S
Ni66        O429   1.910       .  S
Ni66       O1534   1.909   1_454  S
Ni66       O1904   1.918   1_554  S
Ni66      Ni1169   2.385   1_545  S
C67         O793   1.280       .  A
C67        O1536   1.282   1_565  A
C67         C325   1.484       .  S
C68         O794   1.280   1_545  A
C68        O1535   1.281       .  A
C68        C1781   1.473       .  S
C69        O1166   1.281       .  A
C69         C146   1.488       .  S
C70         O428   1.281       .  A
C70         O797   1.279       .  A
C70         C165   1.479       .  S
O71         Ni79   1.913       .  S
O71          C81   1.280       .  A
O72        Ni447   1.918       .  S
O72          C82   1.281       .  A
O73         Ni79   1.921       .  S
O73          C83   1.282       .  A
O74       Ni1919   1.922       .  S
O74         C452   1.281       .  A
O75       Ni1920   1.923   1_455  S
O75          C84   1.281       .  A
O76         Ni80   1.920       .  S
O76         C451   1.281       .  A
O77         Ni80   1.918       .  S
O77          C82   1.281       .  A
O78        Ni448   1.923       .  S
O78          C81   1.283       .  A
Ni79        O440   1.918       .  S
Ni79       O1914   1.922       .  S
Ni79       Ni448   2.388       .  S
Ni80       O1915   1.923       .  S
Ni80        O446   1.923   1_554  S
Ni80       Ni447   2.388       .  S
C81         C293   1.485       .  S
C82         C274   1.478       .  S
C83         O444   1.281       .  A
C83         C114   1.481       .  S
C84         O442   1.281       .  A
C84         C130   1.475       .  S
O85        Ni461   1.911       .  S
O85         C831   1.279       .  A
O86         Ni93   1.907       .  S
O86         C832   1.280   1_545  A
O87         Ni93   1.914       .  S
O87         C833   1.280   1_545  A
O88        Ni461   1.914       .  S
O88         C834   1.279   1_545  A
O89         Ni94   1.916       .  S
O89          C98   1.280       .  A
O90        Ni462   1.916   1_554  S
O90          C97   1.280       .  A
O91         Ni94   1.912       .  S
O91         C464   1.280       .  A
O92        Ni462   1.907       .  S
O92         C463   1.281       .  A
Ni93        O453   1.911       .  S
Ni93        O456   1.914   1_554  S
Ni93      Ni1198   2.388   1_544  S
Ni94        O458   1.916       .  S
Ni94        O460   1.907       .  S
Ni94      Ni1197   2.388       .  S
C95         O821   1.279       .  A
C95         O460   1.281       .  A
C95         C149   1.488       .  S
C96         O822   1.280       .  A
C96         O459   1.280       .  A
C96         C530   1.480       .  S
C97         O823   1.280       .  A
C97         C213   1.470       .  S
C98         O824   1.279       .  A
C98         C229   1.467       .  S
O99        Ni107   1.914       .  S
O99         C109   1.279       .  A
O100       Ni475   1.915   1_554  S
O100        C110   1.280       .  A
O101       Ni107   1.925       .  S
O101        C111   1.282       .  A
O102       Ni475   1.924       .  S
O102        C480   1.282       .  A
O103       Ni476   1.919       .  S
O103        C112   1.281       .  A
O104       Ni108   1.924       .  S
O104        C479   1.281       .  A
O105       Ni108   1.914   1_554  S
O105        C110   1.282       .  A
O106       Ni476   1.920       .  S
O106        C109   1.281       .  A
Ni107       O468   1.915       .  S
Ni107       O470   1.924       .  S
Ni107      Ni476   2.388       .  S
Ni108       O471   1.919       .  S
Ni108       O474   1.920       .  S
Ni108      Ni475   2.388       .  S
C109        C194   1.469       .  S
C110        C181   1.489       .  S
C111        O472   1.281       .  A
C111        C133   1.479       .  S
C112        O470   1.282       .  A
C112        C117   1.481       .  S
C113        C118   1.405       .  A
C113        C482   1.403       .  A
C113        H120   1.084       .  S
C114        C115   1.415       .  A
C114        C481   1.403       .  A
C115        C116   1.407       .  A
C115        C122   1.507       .  S
C116        C117   1.404       .  A
C116        H121   1.084       .  S
C117        C486   1.415       .  A
C118        C485   1.415   1_554  A
C118        C119   1.508       .  S
C119        H123   1.111       .  S
C119        H124   1.111       .  S
C119        H125   1.109       .  S
C122        H126   1.109       .  S
C122        H127   1.111       .  S
C122        H128   1.111       .  S
C129        C130   1.401       .  A
C129        C134   1.404       .  A
C129        H136   1.084       .  S
C130        C499   1.415       .  A
C131        C132   1.407       .  A
C131        C498   1.415       .  A
C131        C138   1.506       .  S
C132        C501   1.403   1_554  A
C132        H137   1.085       .  S
C133        C134   1.411       .  A
C133        C500   1.403       .  A
C134        C135   1.500       .  S
C135        H139   1.111       .  S
C135        H140   1.110       .  S
C135        H141   1.110       .  S
C138        H142   1.110       .  S
C138        H143   1.108       .  S
C138        H144   1.110       .  S
C145        C150   1.401       .  A
C145       C1250   1.406   1_544  A
C145        H152   1.083       .  S
C146        C147   1.418       .  A
C146       C1249   1.406       .  A
C147        C148   1.401       .  A
C147        C154   1.510       .  S
C148        C149   1.407       .  A
C148        H153   1.083       .  S
C149       C1254   1.419       .  A
C150       C1253   1.419   1_554  A
C150        C151   1.510       .  S
C151        H155   1.111       .  S
C151        H156   1.110       .  S
C151        H525   1.110   1_554  S
C154        H159   1.110       .  S
C154        H160   1.111       .  S
C154        H526   1.110       .  S
H157        C519   1.110       .  S
H158        C522   1.110   1_554  S
C161        C166   1.401       .  A
C161        C898   1.405   1_545  A
C161        H168   1.084       .  S
C162        C464   1.480       .  S
C162        C897   1.405       .  A
C162        C531   1.416       .  A
C163        C164   1.401       .  A
C163        C530   1.416       .  A
C163        C170   1.509       .  S
C164        C533   1.404       .  A
C164        H169   1.084       .  S
C165        C532   1.404       .  A
C165        C902   1.416       .  A
C166        C901   1.416       .  A
C166        C167   1.509       .  S
C167        H171   1.111       .  S
C167        H172   1.110       .  S
C167        H173   1.111       .  S
C170        H174   1.111       .  S
C170        H175   1.110       .  S
C170        H176   1.111       .  S
C177        C178   1.398       .  A
C177        C182   1.404       .  A
C177        H184   1.084       .  S
C178        C179   1.407       .  A
C179        C180   1.402       .  A
C179        C186   1.508       .  S
C180        C181   1.409       .  A
C180        H185   1.083       .  S
C181        C182   1.422       .  A
C182        C183   1.508       .  S
C183        H187   1.111       .  S
C183        H188   1.110       .  S
C183        H189   1.110       .  S
C186        H190   1.110       .  S
C186        H191   1.110       .  S
C186        H192   1.111       .  S
C193        C194   1.394       .  A
C193        C198   1.400       .  A
C193        H200   1.075       .  S
C194        C195   1.406       .  A
C195        C196   1.405       .  A
C195        C202   1.506       .  S
C196        C197   1.412       .  A
C196        H201   1.083       .  S
C197        C198   1.423       .  A
C198        C199   1.510       .  S
C199        H203   1.111       .  S
C199        H204   1.110       .  S
C199        H205   1.110       .  S
C202        H206   1.110       .  S
C202        H207   1.110       .  S
C202        H208   1.111       .  S
C209        C214   1.402       .  A
C209        C946   1.408   1_545  A
C209        H216   1.084       .  S
C210        C211   1.419       .  A
C210        C945   1.408       .  A
C211        C212   1.405       .  A
C211        C218   1.508       .  S
C212        C213   1.400       .  A
C212        H217   1.084       .  S
C213        C950   1.409       .  A
C214        C949   1.409   1_545  A
C214        C215   1.508       .  S
C215        H219   1.111       .  S
C215        H220   1.111       .  S
C215        H221   1.109       .  S
C218        H222   1.110       .  S
C218        H223   1.110       .  S
C218        H224   1.111       .  S
C225        C226   1.411       .  A
C225        C230   1.403       .  A
C225        H232   1.083       .  S
C226        C963   1.426       .  A
C227        C228   1.404       .  A
C227        C962   1.426       .  A
C227        C234   1.509       .  S
C228        C965   1.396   1_545  A
C228        H233   1.085       .  S
C229        C230   1.406       .  A
C229        C964   1.396       .  A
C230        C231   1.508       .  S
C231        H235   1.111       .  S
C231        H236   1.110       .  S
C231        H973   1.111       .  S
C234        H239   1.110       .  S
C234        H240   1.111       .  S
C234        H974   1.110   1_545  S
H237        C967   1.111   1_545  S
H238        C970   1.110       .  S
C241        C242   1.405       .  A
C241        C246   1.404       .  A
C241        H248   1.084       .  S
C242        C243   1.418       .  A
C243        C244   1.404       .  A
C243        C250   1.509       .  S
C244        C245   1.405       .  A
C244        H249   1.084       .  S
C245        C246   1.418       .  A
C246        C247   1.509       .  S
C247        H251   1.111       .  S
C247        H252   1.111       .  S
C247        H253   1.109       .  S
C250        H254   1.109       .  S
C250        H255   1.110       .  S
C250        H256   1.111       .  S
C257        C258   1.406       .  A
C257        C262   1.404       .  A
C257        H264   1.083       .  S
C258        C259   1.421       .  A
C259        C260   1.405       .  A
C259        C266   1.509       .  S
C260        C261   1.407       .  A
C260        H265   1.083       .  S
C261        C262   1.421       .  A
C262        C263   1.510       .  S
C263        H267   1.111       .  S
C263        H268   1.110       .  S
C263        H269   1.110       .  S
C266        H270   1.110       .  S
C266        H271   1.110       .  S
C266        H272   1.111       .  S
C273        C274   1.405       .  A
C273        C278   1.405       .  A
C273        H280   1.084       .  S
C274       C1747   1.416       .  A
C275        C276   1.402       .  A
C275       C1746   1.416   1_455  A
C275        C282   1.509       .  S
C276       C1749   1.403   1_455  A
C276        H281   1.085       .  S
C277        C278   1.414       .  A
C277       C1748   1.403       .  A
C278        C279   1.508       .  S
C279        H283   1.111       .  S
C279        H284   1.111       .  S
C279        H285   1.110       .  S
C282        H286   1.110       .  S
C282        H287   1.105       .  S
C282        H288   1.110       .  S
C289        C294   1.404       .  A
C289       C1762   1.401   1_455  A
C289        H296   1.084       .  S
C290        C291   1.412       .  A
C290       C1761   1.401       .  A
C291        C292   1.405       .  A
C291        C298   1.508       .  S
C292        C293   1.406       .  A
C292        H297   1.084       .  S
C293       C1766   1.419       .  A
C294       C1765   1.419       .  A
C294        C295   1.508       .  S
C295        H299   1.111       .  S
C295        H300   1.109       .  S
C295        H301   1.110       .  S
C298        H302   1.109       .  S
C298        H303   1.111       .  S
C298        H304   1.111       .  S
C305        C306   1.406   1_455  A
C305        C310   1.404       .  A
C305        H312   1.084       .  S
C306       C2515   1.419       .  A
C307        C308   1.405       .  A
C307       C2514   1.419       .  A
C307        C314   1.508       .  S
C308       C1781   1.400       .  A
C308        H313   1.084       .  S
C309       C1540   1.473       .  S
C309       C1780   1.400   1_455  A
C309       C1046   1.411   1_545  A
C310       C1045   1.411       .  A
C310        C311   1.508       .  S
C311        H315   1.111       .  S
C311        H316   1.111       .  S
C311        H317   1.109       .  S
C314        H318   1.111       .  S
C314        H319   1.109       .  S
C314        H320   1.111       .  S
C321        C326   1.404       .  A
C321       C2530   1.401       .  A
C321        H328   1.085       .  S
C322        C323   1.411       .  A
C322       C2529   1.401   1_445  A
C323        C324   1.403       .  A
C323        C330   1.507       .  S
C324        C325   1.406   1_545  A
C324        H329   1.084       .  S
C325       C2534   1.419   1_455  A
C326       C2533   1.419       .  A
C326        C327   1.508       .  S
C327        H331   1.111       .  S
C327        H332   1.110       .  S
C327        H333   1.109       .  S
C330        H334   1.111       .  S
C330        H335   1.109       .  S
C330        H336   1.111       .  S
C337        C342   1.404       .  A
C337       C1810   1.407   1_455  A
C337        H344   1.083       .  S
C338        C339   1.420       .  A
C338       C1809   1.407       .  A
C339        C340   1.404       .  A
C339        C346   1.510       .  S
C340        C341   1.407       .  A
C340        H345   1.083       .  S
C341       C1814   1.420       .  A
C342       C1813   1.420       .  A
C342        C343   1.509       .  S
C343        H347   1.111       .  S
C343        H348   1.110       .  S
C343        H349   1.110       .  S
C346        H350   1.110       .  S
C346        H351   1.110       .  S
C346        H352   1.111       .  S
C353        C358   1.403       .  A
C353       C1826   1.405   1_455  A
C353        H360   1.084       .  S
C354        C355   1.419       .  A
C354       C1825   1.405       .  A
C355        C356   1.404       .  A
C355        C362   1.509       .  S
C356        C357   1.406       .  A
C356        H361   1.084       .  S
C357       C1830   1.419       .  A
C358       C1829   1.419       .  A
C358        C359   1.509       .  S
C359        H363   1.111       .  S
C359        H364   1.110       .  S
C359        H365   1.108       .  S
C362        H366   1.111       .  S
C362        H367   1.110       .  S
C362        H368   1.111       .  S
O369      Ni1113   1.915       .  S
O369       C1851   1.280       .  A
O370       Ni377   1.915       .  S
O370       C1852   1.280       .  A
O371       Ni377   1.915       .  S
O371        C381   1.282       .  A
O372      Ni1113   1.917       .  S
O372        C382   1.283       .  A
O373      Ni1114   1.914       .  S
O373       C1854   1.280       .  A
O374       Ni378   1.916       .  S
O374       C1853   1.280       .  A
O375      Ni1114   1.918       .  S
O375       C1116   1.282   1_455  A
O376       Ni378   1.918       .  S
O376       C1115   1.281       .  A
Ni377      O1105   1.915       .  S
Ni377      O1108   1.917       .  S
Ni377     Ni1850   2.383       .  S
Ni378      O1109   1.914       .  S
Ni378      O1111   1.918       .  S
Ni378     Ni1849   2.383   1_455  S
C379       O1841   1.280   1_455  A
C379       O1112   1.281       .  A
C379        C690   1.473       .  S
C380       O1842   1.280       .  A
C380       O1111   1.282   1_655  A
C380        C674   1.485       .  S
C381       O1846   1.280       .  A
C381        C709   1.494       .  S
C382       O1845   1.280       .  A
C382        C725   1.490       .  S
O383       Ni391   1.915       .  S
O383       C1865   1.280   1_455  A
O384       Ni391   1.913       .  S
O384       C1866   1.281   1_455  A
O385       Ni391   1.918       .  S
O385       C1867   1.283   1_455  A
O386       Ni391   1.913       .  S
O386       C1868   1.282   1_455  A
O387       Ni392   1.917       .  S
O387        C396   1.281       .  A
O388       Ni392   1.913       .  S
O388        C395   1.279       .  A
O389       Ni392   1.920       .  S
O389        C394   1.281       .  A
O390       Ni392   1.920       .  S
O390        C393   1.281       .  A
Ni391     Ni1864   2.384   1_455  S
Ni392     Ni1863   2.384       .  S
C393       O1855   1.280       .  A
C393        C658   1.476       .  S
C394       O1856   1.281       .  A
C394        C645   1.481       .  S
C395       O1857   1.283       .  A
C395        C706   1.494       .  S
C396       O1858   1.282       .  A
C396        C722   1.490       .  S
O397      Ni1141   1.912       .  S
O397       C1143   1.279       .  A
O398       Ni405   1.911       .  S
O398        C408   1.281       .  A
O399       Ni405   1.919       .  S
O399        C409   1.282       .  A
O400      Ni1141   1.919       .  S
O400        C410   1.283       .  A
O401      Ni1142   1.914       .  S
O401        C410   1.279       .  A
O402       Ni406   1.913       .  S
O402        C409   1.279       .  A
O403      Ni1142   1.919   1_565  S
O403       C1144   1.281       .  A
O404       Ni406   1.920       .  S
O404        C407   1.283       .  A
Ni405      O1133   1.912       .  S
Ni405      O1136   1.919       .  S
Ni405      Ni406   2.380       .  S
Ni406      O1137   1.914       .  S
Ni406      O1139   1.920       .  S
C407       O1133   1.279       .  A
C407        C594   1.495       .  S
C408       O1139   1.281       .  A
C408        C578   1.486       .  S
C409        C613   1.488       .  S
C410        C626   1.495       .  S
O411       Ni419   1.917       .  S
O411        C421   1.282       .  A
O412       Ni419   1.916       .  S
O412        C422   1.280       .  A
O413       Ni419   1.918       .  S
O413        C423   1.282       .  A
O414       Ni419   1.921       .  S
O414        C424   1.284       .  A
O415       Ni420   1.913       .  S
O415        C424   1.279       .  A
O416       Ni420   1.914       .  S
O416        C423   1.280       .  A
O417       Ni420   1.913       .  S
O417        C422   1.279       .  A
O418       Ni420   1.912       .  S
O418        C421   1.280       .  A
Ni419      Ni420   2.383       .  S
C421        C565   1.492       .  S
C422        C546   1.467       .  S
C423        C610   1.487       .  S
C424        C629   1.495       .  S
O425       Ni433   1.915   1_556  S
O425       C1171   1.280       .  A
O426      Ni1537   1.914       .  S
O426       C1172   1.280       .  A
O427      Ni1905   1.911       .  S
O427        C437   1.279   1_554  A
O429       C1174   1.279       .  A
O430      Ni1906   1.908       .  S
O430        C805   1.281   1_545  A
O431       Ni434   1.918   1_655  S
O431       C1908   1.281   1_655  A
O432      Ni1538   1.918   1_556  S
O432       C1907   1.282   1_545  A
Ni433      O1530   1.914       .  S
Ni433      O1899   1.911   1_455  S
Ni433      Ni802   2.385       .  S
Ni434      O1902   1.908   1_455  S
Ni434      O1536   1.917       .  S
Ni434      Ni801   2.385   1_545  S
C435       O1161   1.280       .  A
C435       O1904   1.282   1_565  A
C435        C693   1.484       .  S
C436       O1162   1.280   1_545  A
C436       O1903   1.281       .  A
C436       C2149   1.473       .  S
C437        O798   1.281       .  A
C437        C514   1.488       .  S
C438       O1165   1.279       .  A
C438        C533   1.479       .  S
O439       Ni447   1.913   1_556  S
O439        C449   1.280       .  A
O440        C450   1.281       .  A
O441       Ni447   1.921       .  S
O441        C451   1.282       .  A
O442      Ni1551   1.922       .  S
O443      Ni1552   1.923   1_455  S
O443        C452   1.281       .  A
O444       Ni448   1.920       .  S
O445       Ni448   1.918       .  S
O445        C450   1.281       .  A
O446        C449   1.283       .  A
Ni447      O1546   1.922       .  S
Ni448      O1547   1.923       .  S
C449        C661   1.485       .  S
C450        C642   1.478       .  S
C451        C482   1.481       .  S
C452        C498   1.475       .  S
O453       C1199   1.279   1_554  A
O454       Ni461   1.908       .  S
O454       C1200   1.280   1_545  A
O455       Ni461   1.914       .  S
O455       C1201   1.280   1_545  A
O456       C1202   1.279   1_545  A
O457       Ni462   1.916       .  S
O457        C466   1.280       .  A
O458        C465   1.280       .  A
O459       Ni462   1.912   1_554  S
Ni461      Ni830   2.388   1_545  S
Ni462      Ni829   2.388   1_556  S
C463       O1189   1.279   1_556  A
C463        C517   1.488       .  S
C464       O1190   1.280       .  A
C465       O1191   1.280       .  A
C465        C581   1.470       .  S
C466       O1192   1.279       .  A
C466        C597   1.467       .  S
O467       Ni475   1.914       .  S
O467        C477   1.279       .  A
O468        C478   1.280       .  A
O469       Ni475   1.925       .  S
O469        C479   1.282       .  A
O471        C480   1.281       .  A
O472       Ni476   1.924       .  S
O473       Ni476   1.914       .  S
O473        C478   1.282       .  A
O474        C477   1.281       .  A
C477        C562   1.469       .  S
C478        C549   1.489       .  S
C479        C501   1.479       .  S
C480        C485   1.481       .  S
C481        C486   1.405       .  A
C481        H488   1.084       .  S
C482        C483   1.415   1_554  A
C483        C484   1.407       .  A
C483        C490   1.507       .  S
C484        C485   1.404       .  A
C484        H489   1.084       .  S
C486        C487   1.508       .  S
C487        H491   1.111       .  S
C487        H492   1.111       .  S
C487        H493   1.109       .  S
C490        H494   1.109       .  S
C490        H495   1.111       .  S
C490        H496   1.111       .  S
C497        C498   1.401   1_556  A
C497        C502   1.404       .  A
C497        H504   1.084       .  S
C499        C500   1.407       .  A
C499        C506   1.506       .  S
C500        H505   1.085       .  S
C501        C502   1.411       .  A
C502        C503   1.500       .  S
C503        H507   1.111       .  S
C503        H508   1.110       .  S
C503        H509   1.110       .  S
C506        H510   1.110       .  S
C506        H511   1.108       .  S
C506        H512   1.110       .  S
C513        C882   1.406   1_545  A
C513        C518   1.401       .  A
C513        H520   1.083       .  S
C514        C881   1.406   1_556  A
C514        C515   1.418       .  A
C515        C516   1.401       .  A
C515        C522   1.510       .  S
C516        C517   1.407       .  A
C516        H521   1.083       .  S
C517        C886   1.419   1_556  A
C518        C885   1.419       .  A
C518        C519   1.510       .  S
C519        H523   1.111       .  S
C519        H524   1.110       .  S
C522        H527   1.110       .  S
C522        H528   1.111       .  S
C529       C1266   1.404   1_546  A
C529        C534   1.400       .  A
C529        H536   1.084       .  S
C530       C1265   1.405   1_554  A
C531        C532   1.401       .  A
C531        C538   1.509       .  S
C532        H537   1.084       .  S
C533       C1270   1.416   1_554  A
C534       C1269   1.416   1_556  A
C534        C535   1.509       .  S
C535        H539   1.111       .  S
C535        H540   1.110       .  S
C535        H541   1.111       .  S
C538        H542   1.111       .  S
C538        H543   1.110       .  S
C538        H544   1.111       .  S
C545        C546   1.398       .  A
C545        C550   1.404       .  A
C545        H552   1.084       .  S
C546        C547   1.407       .  A
C547        C548   1.402       .  A
C547        C554   1.508       .  S
C548        C549   1.409       .  A
C548        H553   1.083       .  S
C549        C550   1.422       .  A
C550        C551   1.508       .  S
C551        H555   1.111       .  S
C551        H556   1.110       .  S
C551        H557   1.110       .  S
C554        H558   1.110       .  S
C554        H559   1.110       .  S
C554        H560   1.111       .  S
C561        C562   1.394       .  A
C561        C566   1.400       .  A
C561        H568   1.075       .  S
C562        C563   1.406       .  A
C563        C564   1.405       .  A
C563        C570   1.506       .  S
C564        C565   1.412       .  A
C564        H569   1.083       .  S
C565        C566   1.423       .  A
C566        C567   1.510       .  S
C567        H571   1.111       .  S
C567        H572   1.110       .  S
C567        H573   1.110       .  S
C570        H574   1.110       .  S
C570        H575   1.110       .  S
C570        H576   1.111       .  S
C577       C1314   1.408   1_545  A
C577        C582   1.402       .  A
C577        H584   1.084       .  S
C578       C1313   1.408       .  A
C578        C579   1.419       .  A
C579        C580   1.405       .  A
C579        C586   1.508       .  S
C580        C581   1.400       .  A
C580        H585   1.084       .  S
C581       C1318   1.409       .  A
C582       C1317   1.409   1_545  A
C582        C583   1.508       .  S
C583        H587   1.111       .  S
C583        H588   1.111       .  S
C583        H589   1.109       .  S
C586        H590   1.110       .  S
C586        H591   1.110       .  S
C586        H592   1.111       .  S
C593        C594   1.411       .  A
C593        C598   1.403       .  A
C593        H600   1.083       .  S
C594       C1331   1.426       .  A
C595       C1330   1.426       .  A
C595        C596   1.405       .  A
C595        C602   1.509       .  S
C596       C1333   1.396   1_545  A
C596        H601   1.085       .  S
C597       C1332   1.396       .  A
C597        C598   1.406       .  A
C598        C599   1.508       .  S
C599        H603   1.111       .  S
C599        H604   1.110       .  S
C599       H1341   1.111       .  S
C602       H1342   1.110   1_545  S
C602        H607   1.110       .  S
C602        H608   1.111       .  S
H605       C1335   1.111   1_545  S
H606       C1338   1.110       .  S
C609        C610   1.405       .  A
C609        C614   1.404       .  A
C609        H616   1.084       .  S
C610        C611   1.418       .  A
C611        C612   1.404       .  A
C611        C618   1.509       .  S
C612        C613   1.405       .  A
C612        H617   1.084       .  S
C613        C614   1.418       .  A
C614        C615   1.509       .  S
C615        H619   1.111       .  S
C615        H620   1.111       .  S
C615        H621   1.109       .  S
C618        H622   1.109       .  S
C618        H623   1.110       .  S
C618        H624   1.111       .  S
C625        C626   1.406       .  A
C625        C630   1.404       .  A
C625        H632   1.083       .  S
C626        C627   1.421       .  A
C627        C628   1.405       .  A
C627        C634   1.509       .  S
C628        C629   1.406       .  A
C628        H633   1.083       .  S
C629        C630   1.421       .  A
C630        C631   1.510       .  S
C631        H635   1.111       .  S
C631        H636   1.110       .  S
C631        H637   1.110       .  S
C634        H638   1.110       .  S
C634        H639   1.110       .  S
C634        H640   1.111       .  S
C641        C642   1.405       .  A
C641        C646   1.405       .  A
C641        H648   1.084       .  S
C642       C2115   1.416       .  A
C643       C2114   1.416   1_455  A
C643        C644   1.402       .  A
C643        C650   1.509       .  S
C644       C2117   1.403   1_455  A
C644        H649   1.085       .  S
C645       C2116   1.403       .  A
C645        C646   1.414       .  A
C646        C647   1.508       .  S
C647        H651   1.111       .  S
C647        H652   1.111       .  S
C647        H653   1.110       .  S
C650        H654   1.110       .  S
C650        H655   1.105       .  S
C650        H656   1.110       .  S
C657       C2130   1.401   1_455  A
C657        C662   1.404       .  A
C657        H664   1.084       .  S
C658       C2129   1.401       .  A
C658        C659   1.412       .  A
C659        C660   1.405       .  A
C659        C666   1.508       .  S
C660        C661   1.406       .  A
C660        H665   1.084       .  S
C661       C2134   1.419       .  A
C662       C2133   1.419       .  A
C662        C663   1.508       .  S
C663        H667   1.111       .  S
C663        H668   1.109       .  S
C663        H669   1.110       .  S
C666        H670   1.109       .  S
C666        H671   1.111       .  S
C666        H672   1.111       .  S
C673        C674   1.406   1_455  A
C673        C678   1.403       .  A
C673        H680   1.084       .  S
C674       C2883   1.419       .  A
C675       C2882   1.419       .  A
C675        C676   1.404       .  A
C675        C682   1.508       .  S
C676       C2149   1.400       .  A
C676        H681   1.084       .  S
C677       C1908   1.473       .  S
C677       C2148   1.400   1_455  A
C677       C1414   1.411   1_545  A
C678       C1413   1.411       .  A
C678        C679   1.508       .  S
C679        H683   1.111       .  S
C679        H684   1.111       .  S
C679        H685   1.109       .  S
C682        H686   1.111       .  S
C682        H687   1.109       .  S
C682        H688   1.111       .  S
C689       C2898   1.401       .  A
C689        C694   1.404       .  A
C689        H696   1.085       .  S
C690       C2897   1.400   1_445  A
C690        C691   1.411       .  A
C691        C692   1.403       .  A
C691        C698   1.506       .  S
C692        C693   1.406   1_545  A
C692        H697   1.084       .  S
C693       C2902   1.419   1_455  A
C694       C2901   1.419       .  A
C694        C695   1.508       .  S
C695        H699   1.111       .  S
C695        H700   1.110       .  S
C695        H701   1.109       .  S
C698        H702   1.111       .  S
C698        H703   1.109       .  S
C698        H704   1.111       .  S
C705       C2178   1.407   1_455  A
C705        C710   1.404       .  A
C705        H712   1.083       .  S
C706       C2177   1.407       .  A
C706        C707   1.420       .  A
C707        C708   1.404       .  A
C707        C714   1.510       .  S
C708        C709   1.407       .  A
C708        H713   1.083       .  S
C709       C2182   1.420       .  A
C710       C2181   1.420       .  A
C710        C711   1.509       .  S
C711        H715   1.111       .  S
C711        H716   1.110       .  S
C711        H717   1.110       .  S
C714        H718   1.110       .  S
C714        H719   1.110       .  S
C714        H720   1.111       .  S
C721       C2194   1.405   1_455  A
C721        C726   1.403       .  A
C721        H728   1.084       .  S
C722       C2193   1.405       .  A
C722        C723   1.419       .  A
C723        C724   1.404       .  A
C723        C730   1.509       .  S
C724        C725   1.406       .  A
C724        H729   1.084       .  S
C725       C2198   1.419       .  A
C726       C2197   1.419       .  A
C726        C727   1.509       .  S
C727        H731   1.111       .  S
C727        H732   1.110       .  S
C727        H733   1.108       .  S
C730        H734   1.111       .  S
C730        H735   1.110       .  S
C730        H736   1.111       .  S
O737       C2219   1.280       .  A
O738       Ni745   1.915       .  S
O738       C2220   1.280       .  A
O739       Ni745   1.915   1_565  S
O739        C749   1.282       .  A
O740        C750   1.283       .  A
O741       C2222   1.280       .  A
O742       Ni746   1.916   1_565  S
O742       C2221   1.280       .  A
O744       Ni746   1.917       .  S
Ni745     Ni2218   2.383       .  S
Ni746     Ni2217   2.383   1_455  S
C747       O2209   1.280   1_455  A
C747       C1058   1.473       .  S
C748       O2210   1.280   1_455  A
C748       C1042   1.485   1_455  S
C749       O2214   1.280       .  A
C749       C1077   1.494       .  S
C750       O2213   1.280       .  A
C750       C1093   1.490       .  S
O751       Ni759   1.915       .  S
O751       C2233   1.280   1_455  A
O752       Ni759   1.913       .  S
O752       C2234   1.281   1_455  A
O753       Ni759   1.918       .  S
O753       C2235   1.283   1_455  A
O754       Ni759   1.913       .  S
O754       C2236   1.282   1_455  A
O755       Ni760   1.917       .  S
O755        C764   1.281       .  A
O756       Ni760   1.913       .  S
O756        C763   1.279       .  A
O757       Ni760   1.920       .  S
O757        C762   1.281       .  A
O758       Ni760   1.920       .  S
O758        C761   1.281       .  A
Ni759     Ni2232   2.384   1_455  S
Ni760     Ni2231   2.384       .  S
C761       O2223   1.280       .  A
C761       C1026   1.476       .  S
C762       O2224   1.281       .  A
C762       C1013   1.481       .  S
C763       O2225   1.283       .  A
C763       C1074   1.494       .  S
C764       O2226   1.282       .  A
C764       C1090   1.490       .  S
O766       Ni773   1.911       .  S
O766        C776   1.281   1_545  A
O767       Ni773   1.919   1_565  S
O767        C777   1.282       .  A
O768        C778   1.283       .  A
O769        C778   1.279       .  A
O770       Ni774   1.913   1_565  S
O770        C777   1.279       .  A
O772       Ni774   1.920       .  S
O772        C775   1.283       .  A
Ni773      Ni774   2.380       .  S
C775        C962   1.495       .  S
C776        C946   1.486       .  S
C777        C981   1.488       .  S
C778        C994   1.495       .  S
O779       Ni787   1.917       .  S
O779        C789   1.282       .  A
O780       Ni787   1.916       .  S
O780        C790   1.280       .  A
O781       Ni787   1.918       .  S
O781        C791   1.282       .  A
O782       Ni787   1.921       .  S
O782        C792   1.284       .  A
O783       Ni788   1.913       .  S
O783        C792   1.279       .  A
O784       Ni788   1.914       .  S
O784        C791   1.280       .  A
O785       Ni788   1.913       .  S
O785        C790   1.279       .  A
O786       Ni788   1.912       .  S
O786        C789   1.280       .  A
Ni787      Ni788   2.383       .  S
C789        C933   1.492       .  S
C790        C914   1.467       .  S
C791        C978   1.487       .  S
C792        C997   1.495       .  S
O793       Ni801   1.915       .  S
O794      Ni2641   1.914       .  S
O795      Ni2273   1.911       .  S
O795        C805   1.279       .  A
O796      Ni1169   1.908       .  S
O796       C1174   1.280   1_565  A
O797      Ni1170   1.909       .  S
O798      Ni2274   1.908   1_556  S
O799       Ni802   1.918   1_655  S
O799       C2276   1.281   1_655  A
O800      Ni2642   1.917       .  S
O800       C2275   1.282       .  A
Ni801      O2634   1.914       .  S
Ni801      O2267   1.911   1_455  S
Ni801      O1164   1.909       .  S
Ni802      O1165   1.910       .  S
Ni802      O2270   1.908   1_454  S
Ni802      O2640   1.917   1_554  S
C803       O2272   1.282       .  A
C803       C1061   1.484       .  S
C804       O2271   1.281       .  A
C804       C2517   1.473       .  S
C805        C882   1.488       .  S
C806       O1164   1.281   1_545  A
C806        C901   1.479       .  S
O807       Ni815   1.913       .  S
O807        C817   1.280       .  A
O808      Ni1183   1.918       .  S
O808        C818   1.281       .  A
O809       Ni815   1.921       .  S
O809        C819   1.282       .  A
O810      Ni2655   1.922       .  S
O810       C1188   1.281       .  A
O811      Ni2656   1.923   1_455  S
O811        C820   1.281       .  A
O812       Ni816   1.920       .  S
O812       C1187   1.281       .  A
O813       Ni816   1.918       .  S
O813        C818   1.281       .  A
O814      Ni1184   1.923       .  S
O814        C817   1.283       .  A
Ni815      O1176   1.918       .  S
Ni815      O2650   1.922       .  S
Ni815     Ni1184   2.388       .  S
Ni816      O2651   1.923       .  S
Ni816      O1182   1.923   1_554  S
Ni816     Ni1183   2.388       .  S
C817       C1029   1.485       .  S
C818       C1010   1.478       .  S
C819       O1180   1.281       .  A
C819        C850   1.481       .  S
C820       O1178   1.281       .  A
C820        C866   1.475       .  S
O821      Ni1197   1.911       .  S
O822       Ni829   1.908       .  S
O823       Ni829   1.914       .  S
O824      Ni1197   1.914       .  S
O825       Ni830   1.916       .  S
O825        C834   1.280       .  A
O826      Ni1198   1.916   1_554  S
O826        C833   1.280       .  A
O827       Ni830   1.912       .  S
O827       C1200   1.280       .  A
O828      Ni1198   1.908       .  S
O828       C1199   1.281   1_565  A
Ni829      O1189   1.911       .  S
Ni829      O1192   1.914   1_554  S
Ni830      O1194   1.916       .  S
Ni830      O1196   1.907       .  S
C831       O1196   1.281   1_545  A
C831        C885   1.488       .  S
C832       O1195   1.280       .  A
C832       C1266   1.480       .  S
C833        C949   1.470       .  S
C834        C965   1.467       .  S
O835       Ni843   1.914       .  S
O835        C845   1.279       .  A
O836      Ni1211   1.915   1_554  S
O836        C846   1.280       .  A
O837       Ni843   1.925       .  S
O837        C847   1.282       .  A
O838      Ni1211   1.924       .  S
O838       C1216   1.282       .  A
O839      Ni1212   1.919       .  S
O839        C848   1.281       .  A
O840       Ni844   1.924       .  S
O840       C1215   1.281       .  A
O841       Ni844   1.914   1_554  S
O841        C846   1.282       .  A
O842      Ni1212   1.920       .  S
O842        C845   1.281       .  A
Ni843      O1204   1.915       .  S
Ni843      O1206   1.924       .  S
Ni843     Ni1212   2.388       .  S
Ni844      O1207   1.919       .  S
Ni844      O1210   1.920       .  S
Ni844     Ni1211   2.388       .  S
C845        C930   1.469       .  S
C846        C917   1.489       .  S
C847       O1208   1.281       .  A
C847        C869   1.479       .  S
C848       O1206   1.282       .  A
C848        C853   1.481       .  S
C849       C1218   1.403       .  A
C849        C854   1.405       .  A
C849        H856   1.084       .  S
C850       C1217   1.403       .  A
C850        C851   1.415       .  A
C851        C852   1.407       .  A
C851        C858   1.507       .  S
C852        C853   1.404       .  A
C852        H857   1.084       .  S
C853       C1222   1.415       .  A
C854       C1221   1.415   1_554  A
C854        C855   1.508       .  S
C855        H859   1.111       .  S
C855        H860   1.111       .  S
C855        H861   1.109       .  S
C858        H862   1.109       .  S
C858        H863   1.111       .  S
C858        H864   1.111       .  S
C865        C866   1.401       .  A
C865        C870   1.404       .  A
C865        H872   1.084       .  S
C866       C1235   1.415       .  A
C867       C1234   1.415       .  A
C867        C868   1.407       .  A
C867        C874   1.506       .  S
C868       C1237   1.403   1_554  A
C868        H873   1.085       .  S
C869       C1236   1.403       .  A
C869        C870   1.411       .  A
C870        C871   1.500       .  S
C871        H875   1.111       .  S
C871        H876   1.110       .  S
C871        H877   1.110       .  S
C874        H878   1.110       .  S
C874        H879   1.108       .  S
C874        H880   1.110       .  S
C881        C886   1.401       .  A
C881        H888   1.083       .  S
C882        C883   1.418       .  A
C883        C884   1.401       .  A
C883        C890   1.510       .  S
C884        C885   1.407   1_565  A
C884        H889   1.083       .  S
C886        C887   1.510       .  S
C887        H891   1.111       .  S
C887        H892   1.110       .  S
C887       H1261   1.110   1_554  S
C890       H1262   1.110       .  S
C890        H895   1.110       .  S
C890        H896   1.111       .  S
H893       C1255   1.110       .  S
H894       C1258   1.110   1_554  S
C897        C902   1.401       .  A
C897        H904   1.084       .  S
C898       C1200   1.480       .  S
C898       C1267   1.416       .  A
C899       C1266   1.416       .  A
C899        C900   1.401       .  A
C899        C906   1.509       .  S
C900       C1269   1.405   1_565  A
C900        H905   1.084       .  S
C901       C1268   1.404   1_545  A
C902        C903   1.509       .  S
C903        H907   1.111       .  S
C903        H908   1.110       .  S
C903        H909   1.111       .  S
C906        H910   1.111       .  S
C906        H911   1.110       .  S
C906        H912   1.111       .  S
C913        C914   1.398       .  A
C913        C918   1.404       .  A
C913        H920   1.084       .  S
C914        C915   1.407       .  A
C915        C916   1.402       .  A
C915        C922   1.508       .  S
C916        C917   1.409       .  A
C916        H921   1.083       .  S
C917        C918   1.422       .  A
C918        C919   1.508       .  S
C919        H923   1.111       .  S
C919        H924   1.110       .  S
C919        H925   1.110       .  S
C922        H926   1.110       .  S
C922        H927   1.110       .  S
C922        H928   1.111       .  S
C929        C930   1.394       .  A
C929        C934   1.400       .  A
C929        H936   1.075       .  S
C930        C931   1.406       .  A
C931        C932   1.405       .  A
C931        C938   1.506       .  S
C932        C933   1.412       .  A
C932        H937   1.083       .  S
C933        C934   1.423       .  A
C934        C935   1.510       .  S
C935        H939   1.111       .  S
C935        H940   1.110       .  S
C935        H941   1.110       .  S
C938        H942   1.110       .  S
C938        H943   1.110       .  S
C938        H944   1.111       .  S
C945        C950   1.402       .  A
C945        H952   1.084       .  S
C946        C947   1.419       .  A
C947        C948   1.405       .  A
C947        C954   1.508       .  S
C948        C949   1.400       .  A
C948        H953   1.084       .  S
C950        C951   1.508       .  S
C951        H955   1.111       .  S
C951        H956   1.111       .  S
C951        H957   1.109       .  S
C954        H958   1.110       .  S
C954        H959   1.110       .  S
C954        H960   1.111       .  S
C961        C962   1.411   1_565  A
C961        C966   1.403       .  A
C961        H968   1.083       .  S
C963        C964   1.404       .  A
C963        C970   1.509       .  S
C964        H969   1.085       .  S
C965        C966   1.406       .  A
C966        C967   1.508       .  S
C967        H971   1.111       .  S
C967        H972   1.110       .  S
C970        H975   1.110       .  S
C970        H976   1.111       .  S
C977        C978   1.405       .  A
C977        C982   1.404       .  A
C977        H984   1.084       .  S
C978        C979   1.418       .  A
C979        C980   1.404       .  A
C979        C986   1.509       .  S
C980        C981   1.405       .  A
C980        H985   1.084       .  S
C981        C982   1.418       .  A
C982        C983   1.509       .  S
C983        H987   1.111       .  S
C983        H988   1.111       .  S
C983        H989   1.109       .  S
C986        H990   1.109       .  S
C986        H991   1.110       .  S
C986        H992   1.111       .  S
C993        C994   1.406       .  A
C993        C998   1.404       .  A
C993       H1000   1.083       .  S
C994        C995   1.421       .  A
C995        C996   1.405       .  A
C995       C1002   1.509       .  S
C996        C997   1.406       .  A
C996       H1001   1.083       .  S
C997        C998   1.421       .  A
C998        C999   1.510       .  S
C999       H1003   1.111       .  S
C999       H1004   1.110       .  S
C999       H1005   1.110       .  S
C1002      H1006   1.110       .  S
C1002      H1007   1.110       .  S
C1002      H1008   1.111       .  S
C1009      C1010   1.405       .  A
C1009      C1014   1.405       .  A
C1009      H1016   1.084       .  S
C1010      C2483   1.416       .  A
C1011      C2482   1.416   1_455  A
C1011      C1012   1.402       .  A
C1011      C1018   1.509       .  S
C1012      C2485   1.403   1_455  A
C1012      H1017   1.085       .  S
C1013      C2484   1.403       .  A
C1013      C1014   1.414       .  A
C1014      C1015   1.508       .  S
C1015      H1019   1.111       .  S
C1015      H1020   1.111       .  S
C1015      H1021   1.110       .  S
C1018      H1022   1.110       .  S
C1018      H1023   1.105       .  S
C1018      H1024   1.110       .  S
C1025      C2498   1.401   1_455  A
C1025      C1030   1.404       .  A
C1025      H1032   1.084       .  S
C1026      C2497   1.401       .  A
C1026      C1027   1.412       .  A
C1027      C1028   1.405       .  A
C1027      C1034   1.508       .  S
C1028      C1029   1.406       .  A
C1028      H1033   1.084       .  S
C1029      C2502   1.419       .  A
C1030      C2501   1.419       .  A
C1030      C1031   1.508       .  S
C1031      H1035   1.111       .  S
C1031      H1036   1.109       .  S
C1031      H1037   1.110       .  S
C1034      H1038   1.109       .  S
C1034      H1039   1.111       .  S
C1034      H1040   1.111       .  S
C1041      C1042   1.406   1_465  A
C1041      C1046   1.403       .  A
C1041      H1048   1.084       .  S
C1042      C1779   1.419       .  A
C1043      C1778   1.419       .  A
C1043      C1044   1.404       .  A
C1043      C1050   1.508       .  S
C1044      C2517   1.400       .  A
C1044      H1049   1.084       .  S
C1045      C2276   1.473       .  S
C1045      C2516   1.400   1_455  A
C1046      C1047   1.508       .  S
C1047      H1051   1.111       .  S
C1047      H1052   1.111       .  S
C1047      H1053   1.109       .  S
C1050      H1054   1.111       .  S
C1050      H1055   1.109       .  S
C1050      H1056   1.111       .  S
C1057      C1794   1.401   1_565  A
C1057      C1062   1.404       .  A
C1057      H1064   1.085       .  S
C1058      C1793   1.401   1_455  A
C1058      C1059   1.411       .  A
C1059      C1060   1.403       .  A
C1059      C1066   1.506       .  S
C1060      C1061   1.406       .  A
C1060      H1065   1.084       .  S
C1061      C1798   1.419   1_455  A
C1062      C1797   1.419       .  A
C1062      C1063   1.508       .  S
C1063      H1067   1.111       .  S
C1063      H1068   1.110       .  S
C1063      H1069   1.109       .  S
C1066      H1070   1.111       .  S
C1066      H1071   1.109       .  S
C1066      H1072   1.111       .  S
C1073      C2546   1.407   1_455  A
C1073      C1078   1.404       .  A
C1073      H1080   1.083       .  S
C1074      C2545   1.407       .  A
C1074      C1075   1.420       .  A
C1075      C1076   1.404       .  A
C1075      C1082   1.510       .  S
C1076      C1077   1.407       .  A
C1076      H1081   1.083       .  S
C1077      C2550   1.420       .  A
C1078      C2549   1.420       .  A
C1078      C1079   1.509       .  S
C1079      H1083   1.111       .  S
C1079      H1084   1.110       .  S
C1079      H1085   1.110       .  S
C1082      H1086   1.110       .  S
C1082      H1087   1.110       .  S
C1082      H1088   1.111       .  S
C1089      C2562   1.405   1_455  A
C1089      C1094   1.403       .  A
C1089      H1096   1.084       .  S
C1090      C2561   1.405       .  A
C1090      C1091   1.419       .  A
C1091      C1092   1.404       .  A
C1091      C1098   1.509       .  S
C1092      C1093   1.406       .  A
C1092      H1097   1.084       .  S
C1093      C2566   1.419       .  A
C1094      C2565   1.419       .  A
C1094      C1095   1.509       .  S
C1095      H1099   1.111       .  S
C1095      H1100   1.110       .  S
C1095      H1101   1.108       .  S
C1098      H1102   1.111       .  S
C1098      H1103   1.110       .  S
C1098      H1104   1.111       .  S
O1105      C2587   1.280       .  A
O1106     Ni1113   1.915       .  S
O1106      C2588   1.280       .  A
O1107     Ni1113   1.915   1_565  S
O1107      C1117   1.282       .  A
O1108      C1118   1.283       .  A
O1109      C2590   1.280       .  A
O1110     Ni1114   1.917   1_565  S
O1110      C2589   1.280       .  A
O1112     Ni1114   1.917       .  S
Ni1113    Ni2586   2.383       .  S
Ni1114    Ni2585   2.383   1_455  S
C1115      O2577   1.280   1_455  A
C1115      C1426   1.473       .  S
C1116      O2578   1.280       .  A
C1116      C1410   1.485       .  S
C1117      O2582   1.280       .  A
C1117      C1445   1.494       .  S
C1118      O2581   1.280       .  A
C1118      C1461   1.490       .  S
O1119     Ni1127   1.915       .  S
O1119      C2601   1.280   1_455  A
O1120     Ni1127   1.913       .  S
O1120      C2602   1.281   1_455  A
O1121     Ni1127   1.918       .  S
O1121      C2603   1.283   1_455  A
O1122     Ni1127   1.913       .  S
O1122      C2604   1.282   1_455  A
O1123     Ni1128   1.917       .  S
O1123      C1132   1.281       .  A
O1124     Ni1128   1.913       .  S
O1124      C1131   1.279       .  A
O1125     Ni1128   1.920       .  S
O1125      C1130   1.281       .  A
O1126     Ni1128   1.920       .  S
O1126      C1129   1.281       .  A
Ni1127    Ni2600   2.384   1_455  S
Ni1128    Ni2599   2.384       .  S
C1129      O2591   1.280       .  A
C1129      C1394   1.476       .  S
C1130      O2592   1.281       .  A
C1130      C1381   1.481       .  S
C1131      O2593   1.283       .  A
C1131      C1442   1.494       .  S
C1132      O2594   1.282       .  A
C1132      C1458   1.490       .  S
O1134     Ni1141   1.912       .  S
O1134      C1144   1.281   1_545  A
O1135     Ni1141   1.919   1_565  S
O1135      C1145   1.282       .  A
O1136      C1146   1.283       .  A
O1137      C1146   1.279       .  A
O1138     Ni1142   1.913   1_565  S
O1138      C1145   1.279       .  A
O1140     Ni1142   1.920       .  S
O1140      C1143   1.283       .  A
Ni1141    Ni1142   2.380       .  S
C1143      C1330   1.495       .  S
C1144      C1314   1.486       .  S
C1145      C1349   1.488       .  S
C1146      C1362   1.495       .  S
O1147     Ni1155   1.917       .  S
O1147      C1157   1.282       .  A
O1148     Ni1155   1.916       .  S
O1148      C1158   1.280       .  A
O1149     Ni1155   1.918       .  S
O1149      C1159   1.282       .  A
O1150     Ni1155   1.921       .  S
O1150      C1160   1.284       .  A
O1151     Ni1156   1.913       .  S
O1151      C1160   1.279       .  A
O1152     Ni1156   1.914       .  S
O1152      C1159   1.280       .  A
O1153     Ni1156   1.913       .  S
O1153      C1158   1.279       .  A
O1154     Ni1156   1.912       .  S
O1154      C1157   1.280       .  A
Ni1155    Ni1156   2.383       .  S
C1157      C1301   1.492       .  S
C1158      C1282   1.467       .  S
C1159      C1346   1.487       .  S
C1160      C1365   1.495       .  S
O1161     Ni1169   1.914   1_556  S
O1162     Ni2273   1.914       .  S
O1163     Ni2641   1.910       .  S
O1163      C1173   1.279       .  A
O1166     Ni2642   1.908       .  S
O1167     Ni1170   1.918   1_655  S
O1167      C2644   1.281   1_655  A
O1168     Ni2274   1.917   1_556  S
O1168      C2643   1.282       .  A
Ni1169     O2266   1.914       .  S
Ni1169     O2635   1.910   1_455  S
Ni1170     O2638   1.908   1_455  S
Ni1170     O2272   1.917       .  S
C1171      O2640   1.282       .  A
C1171      C1429   1.484       .  S
C1172      O2639   1.281       .  A
C1172      C2885   1.473       .  S
C1173      C1250   1.488   1_554  S
C1174      C1269   1.479       .  S
O1175     Ni1183   1.913   1_556  S
O1175      C1185   1.280       .  A
O1176      C1186   1.281       .  A
O1177     Ni1183   1.921       .  S
O1177      C1187   1.282       .  A
O1178     Ni2287   1.922       .  S
O1179     Ni2288   1.923   1_455  S
O1179      C1188   1.281       .  A
O1180     Ni1184   1.920       .  S
O1181     Ni1184   1.918       .  S
O1181      C1186   1.281       .  A
O1182      C1185   1.283       .  A
Ni1183     O2282   1.922       .  S
Ni1184     O2283   1.923       .  S
C1185      C1397   1.485       .  S
C1186      C1378   1.478       .  S
C1187      C1218   1.481       .  S
C1188      C1234   1.475       .  S
O1190     Ni1197   1.908       .  S
O1191     Ni1197   1.914       .  S
O1193     Ni1198   1.916       .  S
O1193      C1202   1.280       .  A
O1194      C1201   1.280       .  A
O1195     Ni1198   1.913   1_554  S
C1199      C1253   1.488       .  S
C1201      C1317   1.470       .  S
C1202      C1333   1.467       .  S
O1203     Ni1211   1.914       .  S
O1203      C1213   1.279       .  A
O1204      C1214   1.280       .  A
O1205     Ni1211   1.925       .  S
O1205      C1215   1.282       .  A
O1207      C1216   1.281       .  A
O1208     Ni1212   1.924       .  S
O1209     Ni1212   1.914       .  S
O1209      C1214   1.282       .  A
O1210      C1213   1.281       .  A
C1213      C1298   1.469       .  S
C1214      C1285   1.489       .  S
C1215      C1237   1.479       .  S
C1216      C1221   1.481       .  S
C1217      C1222   1.405       .  A
C1217      H1224   1.084       .  S
C1218      C1219   1.415   1_554  A
C1219      C1220   1.407       .  A
C1219      C1226   1.507       .  S
C1220      C1221   1.404       .  A
C1220      H1225   1.084       .  S
C1222      C1223   1.508       .  S
C1223      H1227   1.111       .  S
C1223      H1228   1.111       .  S
C1223      H1229   1.109       .  S
C1226      H1230   1.109       .  S
C1226      H1231   1.111       .  S
C1226      H1232   1.111       .  S
C1233      C1234   1.401   1_556  A
C1233      C1238   1.404       .  A
C1233      H1240   1.084       .  S
C1235      C1236   1.407       .  A
C1235      C1242   1.506       .  S
C1236      H1241   1.085       .  S
C1237      C1238   1.411       .  A
C1238      C1239   1.500       .  S
C1239      H1243   1.111       .  S
C1239      H1244   1.110       .  S
C1239      H1245   1.110       .  S
C1242      H1246   1.110       .  S
C1242      H1247   1.108       .  S
C1242      H1248   1.110       .  S
C1249      C1254   1.401       .  A
C1249      H1256   1.083       .  S
C1250      C1251   1.419       .  A
C1251      C1252   1.401       .  A
C1251      C1258   1.510       .  S
C1252      C1253   1.406   1_565  A
C1252      H1257   1.083       .  S
C1254      C1255   1.510       .  S
C1255      H1259   1.111       .  S
C1255      H1260   1.110       .  S
C1258      H1263   1.110       .  S
C1258      H1264   1.111       .  S
C1265      C1270   1.401       .  A
C1265      H1272   1.084       .  S
C1267      C1268   1.401       .  A
C1267      C1274   1.509       .  S
C1268      H1273   1.084       .  S
C1270      C1271   1.509       .  S
C1271      H1275   1.111       .  S
C1271      H1276   1.110       .  S
C1271      H1277   1.111       .  S
C1274      H1278   1.111       .  S
C1274      H1279   1.110       .  S
C1274      H1280   1.111       .  S
C1281      C1282   1.398       .  A
C1281      C1286   1.404       .  A
C1281      H1288   1.084       .  S
C1282      C1283   1.407       .  A
C1283      C1284   1.402       .  A
C1283      C1290   1.508       .  S
C1284      C1285   1.409       .  A
C1284      H1289   1.083       .  S
C1285      C1286   1.422       .  A
C1286      C1287   1.508       .  S
C1287      H1291   1.111       .  S
C1287      H1292   1.110       .  S
C1287      H1293   1.110       .  S
C1290      H1294   1.110       .  S
C1290      H1295   1.110       .  S
C1290      H1296   1.111       .  S
C1297      C1298   1.394       .  A
C1297      C1302   1.400       .  A
C1297      H1304   1.075       .  S
C1298      C1299   1.406       .  A
C1299      C1300   1.405       .  A
C1299      C1306   1.506       .  S
C1300      C1301   1.412       .  A
C1300      H1305   1.083       .  S
C1301      C1302   1.423       .  A
C1302      C1303   1.510       .  S
C1303      H1307   1.111       .  S
C1303      H1308   1.110       .  S
C1303      H1309   1.110       .  S
C1306      H1310   1.110       .  S
C1306      H1311   1.110       .  S
C1306      H1312   1.111       .  S
C1313      C1318   1.402       .  A
C1313      H1320   1.084       .  S
C1314      C1315   1.419       .  A
C1315      C1316   1.405       .  A
C1315      C1322   1.508       .  S
C1316      C1317   1.400       .  A
C1316      H1321   1.084       .  S
C1318      C1319   1.508       .  S
C1319      H1323   1.111       .  S
C1319      H1324   1.111       .  S
C1319      H1325   1.109       .  S
C1322      H1326   1.110       .  S
C1322      H1327   1.110       .  S
C1322      H1328   1.111       .  S
C1329      C1330   1.411   1_565  A
C1329      C1334   1.403       .  A
C1329      H1336   1.083       .  S
C1331      C1332   1.404       .  A
C1331      C1338   1.509       .  S
C1332      H1337   1.085       .  S
C1333      C1334   1.406       .  A
C1334      C1335   1.508       .  S
C1335      H1339   1.111       .  S
C1335      H1340   1.110       .  S
C1338      H1343   1.110       .  S
C1338      H1344   1.111       .  S
C1345      C1346   1.405       .  A
C1345      C1350   1.404       .  A
C1345      H1352   1.084       .  S
C1346      C1347   1.418       .  A
C1347      C1348   1.404       .  A
C1347      C1354   1.509       .  S
C1348      C1349   1.405       .  A
C1348      H1353   1.084       .  S
C1349      C1350   1.418       .  A
C1350      C1351   1.509       .  S
C1351      H1355   1.111       .  S
C1351      H1356   1.111       .  S
C1351      H1357   1.109       .  S
C1354      H1358   1.109       .  S
C1354      H1359   1.110       .  S
C1354      H1360   1.111       .  S
C1361      C1362   1.406       .  A
C1361      C1366   1.404       .  A
C1361      H1368   1.083       .  S
C1362      C1363   1.421       .  A
C1363      C1364   1.405       .  A
C1363      C1370   1.509       .  S
C1364      C1365   1.406       .  A
C1364      H1369   1.083       .  S
C1365      C1366   1.421       .  A
C1366      C1367   1.510       .  S
C1367      H1371   1.111       .  S
C1367      H1372   1.110       .  S
C1367      H1373   1.110       .  S
C1370      H1374   1.110       .  S
C1370      H1375   1.110       .  S
C1370      H1376   1.111       .  S
C1377      C1378   1.405       .  A
C1377      C1382   1.405       .  A
C1377      H1384   1.084       .  S
C1378      C2851   1.416       .  A
C1379      C2850   1.416   1_455  A
C1379      C1380   1.402       .  A
C1379      C1386   1.509       .  S
C1380      C2853   1.403   1_455  A
C1380      H1385   1.085       .  S
C1381      C2852   1.403       .  A
C1381      C1382   1.414       .  A
C1382      C1383   1.508       .  S
C1383      H1387   1.111       .  S
C1383      H1388   1.111       .  S
C1383      H1389   1.110       .  S
C1386      H1390   1.110       .  S
C1386      H1391   1.105       .  S
C1386      H1392   1.110       .  S
C1393      C2866   1.401   1_455  A
C1393      C1398   1.404       .  A
C1393      H1400   1.084       .  S
C1394      C2865   1.401       .  A
C1394      C1395   1.412       .  A
C1395      C1396   1.405       .  A
C1395      C1402   1.508       .  S
C1396      C1397   1.406       .  A
C1396      H1401   1.084       .  S
C1397      C2870   1.419       .  A
C1398      C2869   1.419       .  A
C1398      C1399   1.508       .  S
C1399      H1403   1.111       .  S
C1399      H1404   1.109       .  S
C1399      H1405   1.110       .  S
C1402      H1406   1.109       .  S
C1402      H1407   1.111       .  S
C1402      H1408   1.111       .  S
C1409      C1410   1.406   1_465  A
C1409      C1414   1.404       .  A
C1409      H1416   1.084       .  S
C1410      C2147   1.419       .  A
C1411      C2146   1.419       .  A
C1411      C1412   1.404       .  A
C1411      C1418   1.508       .  S
C1412      C2885   1.400       .  A
C1412      H1417   1.084       .  S
C1413      C2644   1.473       .  S
C1413      C2884   1.400   1_455  A
C1414      C1415   1.508       .  S
C1415      H1419   1.111       .  S
C1415      H1420   1.111       .  S
C1415      H1421   1.109       .  S
C1418      H1422   1.111       .  S
C1418      H1423   1.109       .  S
C1418      H1424   1.111       .  S
C1425      C2162   1.400   1_565  A
C1425      C1430   1.404       .  A
C1425      H1432   1.085       .  S
C1426      C2161   1.401   1_455  A
C1426      C1427   1.411       .  A
C1427      C1428   1.403       .  A
C1427      C1434   1.506       .  S
C1428      C1429   1.406       .  A
C1428      H1433   1.084       .  S
C1429      C2166   1.419   1_455  A
C1430      C2165   1.419       .  A
C1430      C1431   1.508       .  S
C1431      H1435   1.111       .  S
C1431      H1436   1.110       .  S
C1431      H1437   1.109       .  S
C1434      H1438   1.111       .  S
C1434      H1439   1.109       .  S
C1434      H1440   1.111       .  S
C1441      C2914   1.407   1_455  A
C1441      C1446   1.404       .  A
C1441      H1448   1.083       .  S
C1442      C2913   1.407       .  A
C1442      C1443   1.420       .  A
C1443      C1444   1.404       .  A
C1443      C1450   1.510       .  S
C1444      C1445   1.407       .  A
C1444      H1449   1.083       .  S
C1445      C2918   1.420       .  A
C1446      C2917   1.420       .  A
C1446      C1447   1.509       .  S
C1447      H1451   1.111       .  S
C1447      H1452   1.110       .  S
C1447      H1453   1.110       .  S
C1450      H1454   1.110       .  S
C1450      H1455   1.110       .  S
C1450      H1456   1.111       .  S
C1457      C2930   1.405   1_455  A
C1457      C1462   1.403       .  A
C1457      H1464   1.084       .  S
C1458      C2929   1.405       .  A
C1458      C1459   1.419       .  A
C1459      C1460   1.404       .  A
C1459      C1466   1.509       .  S
C1460      C1461   1.406       .  A
C1460      H1465   1.084       .  S
C1461      C2934   1.419       .  A
C1462      C2933   1.419       .  A
C1462      C1463   1.509       .  S
C1463      H1467   1.111       .  S
C1463      H1468   1.110       .  S
C1463      H1469   1.108       .  S
C1466      H1470   1.111       .  S
C1466      H1471   1.110       .  S
C1466      H1472   1.111       .  S
O1473     Ni2217   1.915       .  S
O1474     Ni1481   1.915       .  S
O1475     Ni1481   1.915       .  S
O1475      C1485   1.282   1_655  A
O1476     Ni2217   1.917       .  S
O1476      C1486   1.283   1_655  A
O1477     Ni2218   1.914       .  S
O1478     Ni1482   1.916       .  S
O1479     Ni2218   1.918       .  S
O1479      C2220   1.282       .  A
O1480     Ni1482   1.918       .  S
O1480      C2219   1.281       .  A
Ni1481     O2209   1.915       .  S
Ni1481     O2212   1.917       .  S
Ni1482     O2213   1.914       .  S
Ni1482     O2215   1.918       .  S
C1483      O2216   1.281       .  A
C1483      C1794   1.473       .  S
C1484      O2215   1.282       .  A
C1484      C1778   1.485       .  S
C1485      C1813   1.494       .  S
C1486      C1829   1.490       .  S
O1487     Ni1495   1.915       .  S
O1488     Ni1495   1.913       .  S
O1489     Ni1495   1.918       .  S
O1490     Ni1495   1.913       .  S
O1491     Ni1496   1.917       .  S
O1491      C1500   1.281       .  A
O1492     Ni1496   1.913       .  S
O1492      C1499   1.279       .  A
O1493     Ni1496   1.920       .  S
O1493      C1498   1.281       .  A
O1494     Ni1496   1.920       .  S
O1494      C1497   1.281       .  A
C1497      C1762   1.476       .  S
C1498      C1749   1.481       .  S
C1499      C1810   1.494       .  S
C1500      C1826   1.490       .  S
O1501     Ni2245   1.912       .  S
O1501      C2247   1.279       .  A
O1502     Ni1509   1.911       .  S
O1502      C1512   1.281       .  A
O1503     Ni1509   1.919       .  S
O1503      C1513   1.282       .  A
O1504     Ni2245   1.919       .  S
O1504      C1514   1.283       .  A
O1505     Ni2246   1.914       .  S
O1505      C1514   1.279       .  A
O1506     Ni1510   1.913       .  S
O1506      C1513   1.279       .  A
O1507     Ni2246   1.919   1_565  S
O1507      C2248   1.281       .  A
O1508     Ni1510   1.920       .  S
O1508      C1511   1.283       .  A
Ni1509     O2237   1.912       .  S
Ni1509     O2240   1.919       .  S
Ni1509    Ni1510   2.380       .  S
Ni1510     O2241   1.914       .  S
Ni1510     O2243   1.920       .  S
C1511      O2237   1.279       .  A
C1511      C1698   1.495       .  S
C1512      O2243   1.281       .  A
C1512      C1682   1.486       .  S
C1513      C1717   1.488       .  S
C1514      C1730   1.495       .  S
O1515     Ni1523   1.917       .  S
O1515      C1525   1.282       .  A
O1516     Ni1523   1.916       .  S
O1516      C1526   1.280       .  A
O1517     Ni1523   1.918       .  S
O1517      C1527   1.282       .  A
O1518     Ni1523   1.921       .  S
O1518      C1528   1.283       .  A
O1519     Ni1524   1.913       .  S
O1519      C1528   1.279       .  A
O1520     Ni1524   1.914       .  S
O1520      C1527   1.280       .  A
O1521     Ni1524   1.913       .  S
O1521      C1526   1.279       .  A
O1522     Ni1524   1.912       .  S
O1522      C1525   1.280       .  A
Ni1523    Ni1524   2.383       .  S
C1525      C1669   1.492       .  S
C1526      C1650   1.467       .  S
C1527      C1714   1.487       .  S
C1528      C1733   1.495       .  S
O1529     Ni1537   1.915       .  S
O1529      C2275   1.280       .  A
O1530      C2276   1.280       .  A
O1531      C1541   1.279       .  A
O1532     Ni1905   1.909       .  S
O1532      C1910   1.281       .  A
O1533     Ni1906   1.910       .  S
O1533      C2278   1.279       .  A
O1534      C2645   1.281   1_546  A
O1535     Ni1538   1.918       .  S
Ni1537     O1900   1.909       .  S
Ni1537    Ni2642   2.385       .  S
Ni1538     O1901   1.910       .  S
Ni1538    Ni2641   2.385   1_545  S
C1539      O2265   1.280       .  A
C1539      C1797   1.484       .  S
C1540      O2266   1.280   1_545  A
C1541      O2638   1.281       .  A
C1541      C1618   1.488       .  S
C1542      O1900   1.281       .  A
C1542      O2269   1.279       .  A
C1542      C1637   1.479       .  S
O1543     Ni1551   1.913       .  S
O1543      C1553   1.280       .  A
O1544     Ni1919   1.918       .  S
O1544      C1554   1.281   1_455  A
O1545     Ni1551   1.921   1_655  S
O1545      C1555   1.282       .  A
O1546      C1924   1.281       .  A
O1547      C1556   1.281       .  A
O1548     Ni1552   1.920       .  S
O1548      C1923   1.281       .  A
O1549     Ni1552   1.918       .  S
O1549      C1554   1.281       .  A
O1550     Ni1920   1.923   1_455  S
O1550      C1553   1.283       .  A
Ni1551     O1912   1.918       .  S
Ni1551    Ni1920   2.388   1_455  S
Ni1552     O1918   1.923   1_654  S
Ni1552    Ni1919   2.388   1_655  S
C1553      C1765   1.485       .  S
C1554      C1746   1.478       .  S
C1555      O1916   1.281       .  A
C1555      C1586   1.481       .  S
C1556      O1914   1.281       .  A
C1556      C1602   1.475       .  S
O1557     Ni1933   1.911       .  S
O1557      C2303   1.279       .  A
O1558     Ni1565   1.907       .  S
O1558      C2304   1.280   1_545  A
O1559     Ni1565   1.914       .  S
O1559      C2305   1.280   1_545  A
O1560     Ni1933   1.914       .  S
O1560      C2306   1.279   1_545  A
O1561     Ni1566   1.916       .  S
O1561      C1570   1.280       .  A
O1562     Ni1934   1.916   1_554  S
O1562      C1569   1.280       .  A
O1563     Ni1566   1.912       .  S
O1563      C1936   1.280       .  A
O1564     Ni1934   1.907       .  S
O1564      C1935   1.281       .  A
Ni1565     O1925   1.911       .  S
Ni1565     O1928   1.914   1_554  S
Ni1565    Ni2670   2.388   1_544  S
Ni1566     O1930   1.916       .  S
Ni1566     O1932   1.907       .  S
Ni1566    Ni2669   2.388       .  S
C1567      O2293   1.279       .  A
C1567      O1932   1.281       .  A
C1567      C1621   1.488       .  S
C1568      O2294   1.280       .  A
C1568      O1931   1.280       .  A
C1568      C2002   1.480       .  S
C1569      O2295   1.280       .  A
C1569      C1685   1.470       .  S
C1570      O2296   1.279       .  A
C1570      C1701   1.467       .  S
O1571     Ni1579   1.914       .  S
O1571      C1581   1.279       .  A
O1572     Ni1947   1.915   1_554  S
O1572      C1582   1.280       .  A
O1573     Ni1579   1.925       .  S
O1573      C1583   1.282       .  A
O1574     Ni1947   1.924       .  S
O1574      C1952   1.282       .  A
O1575     Ni1948   1.919       .  S
O1575      C1584   1.281       .  A
O1576     Ni1580   1.924       .  S
O1576      C1951   1.281       .  A
O1577     Ni1580   1.914   1_554  S
O1577      C1582   1.282       .  A
O1578     Ni1948   1.920       .  S
O1578      C1581   1.281       .  A
Ni1579     O1940   1.915       .  S
Ni1579     O1942   1.924       .  S
Ni1579    Ni1948   2.388       .  S
Ni1580     O1943   1.919       .  S
Ni1580     O1946   1.920       .  S
Ni1580    Ni1947   2.388       .  S
C1581      C1666   1.469       .  S
C1582      C1653   1.489       .  S
C1583      O1944   1.281       .  A
C1583      C1605   1.479       .  S
C1584      O1942   1.282       .  A
C1584      C1589   1.481       .  S
C1585      C1954   1.403       .  A
C1585      C1590   1.405       .  A
C1585      H1592   1.084       .  S
C1586      C1953   1.403       .  A
C1586      C1587   1.415       .  A
C1587      C1588   1.407       .  A
C1587      C1594   1.507       .  S
C1588      C1589   1.404       .  A
C1588      H1593   1.084       .  S
C1589      C1958   1.415       .  A
C1590      C1957   1.415   1_554  A
C1590      C1591   1.508       .  S
C1591      H1595   1.111       .  S
C1591      H1596   1.111       .  S
C1591      H1597   1.109       .  S
C1594      H1598   1.109       .  S
C1594      H1599   1.111       .  S
C1594      H1600   1.111       .  S
C1601      C1602   1.401       .  A
C1601      C1606   1.404       .  A
C1601      H1608   1.084       .  S
C1602      C1971   1.415       .  A
C1603      C1970   1.415       .  A
C1603      C1604   1.407       .  A
C1603      C1610   1.506       .  S
C1604      C1973   1.403   1_554  A
C1604      H1609   1.085       .  S
C1605      C1972   1.403       .  A
C1605      C1606   1.411       .  A
C1606      C1607   1.500       .  S
C1607      H1611   1.111       .  S
C1607      H1612   1.110       .  S
C1607      H1613   1.110       .  S
C1610      H1614   1.110       .  S
C1610      H1615   1.108       .  S
C1610      H1616   1.110       .  S
C1617      C2722   1.406   1_544  A
C1617      C1622   1.401       .  A
C1617      H1624   1.083       .  S
C1618      C2721   1.406       .  A
C1618      C1619   1.418       .  A
C1619      C1620   1.401       .  A
C1619      C1626   1.510       .  S
C1620      C1621   1.407       .  A
C1620      H1625   1.083       .  S
C1621      C2726   1.419       .  A
C1622      C2725   1.419   1_554  A
C1622      C1623   1.510       .  S
C1623      H1627   1.111       .  S
C1623      H1628   1.110       .  S
C1623      H1997   1.110   1_554  S
C1626      H1998   1.110       .  S
C1626      H1631   1.110       .  S
C1626      H1632   1.111       .  S
H1629      C1991   1.110       .  S
H1630      C1994   1.110   1_554  S
C1633      C2370   1.405   1_545  A
C1633      C1638   1.401       .  A
C1633      H1640   1.084       .  S
C1634      C1936   1.480       .  S
C1634      C2369   1.405       .  A
C1634      C2003   1.416       .  A
C1635      C2002   1.416       .  A
C1635      C1636   1.401       .  A
C1635      C1642   1.509       .  S
C1636      C2005   1.404       .  A
C1636      H1641   1.084       .  S
C1637      C2004   1.404       .  A
C1637      C2374   1.416       .  A
C1638      C2373   1.416       .  A
C1638      C1639   1.509       .  S
C1639      H1643   1.111       .  S
C1639      H1644   1.110       .  S
C1639      H1645   1.111       .  S
C1642      H1646   1.111       .  S
C1642      H1647   1.110       .  S
C1642      H1648   1.111       .  S
C1649      C1650   1.398       .  A
C1649      C1654   1.404       .  A
C1649      H1656   1.084       .  S
C1650      C1651   1.407       .  A
C1651      C1652   1.402       .  A
C1651      C1658   1.508       .  S
C1652      C1653   1.409       .  A
C1652      H1657   1.083       .  S
C1653      C1654   1.422       .  A
C1654      C1655   1.508       .  S
C1655      H1659   1.111       .  S
C1655      H1660   1.110       .  S
C1655      H1661   1.110       .  S
C1658      H1662   1.110       .  S
C1658      H1663   1.110       .  S
C1658      H1664   1.111       .  S
C1665      C1666   1.394       .  A
C1665      C1670   1.400       .  A
C1665      H1672   1.075       .  S
C1666      C1667   1.406       .  A
C1667      C1668   1.405       .  A
C1667      C1674   1.506       .  S
C1668      C1669   1.412       .  A
C1668      H1673   1.083       .  S
C1669      C1670   1.423       .  A
C1670      C1671   1.510       .  S
C1671      H1675   1.111       .  S
C1671      H1676   1.110       .  S
C1671      H1677   1.110       .  S
C1674      H1678   1.110       .  S
C1674      H1679   1.110       .  S
C1674      H1680   1.111       .  S
C1681      C2418   1.408   1_545  A
C1681      C1686   1.402       .  A
C1681      H1688   1.084       .  S
C1682      C2417   1.408       .  A
C1682      C1683   1.419       .  A
C1683      C1684   1.405       .  A
C1683      C1690   1.508       .  S
C1684      C1685   1.400       .  A
C1684      H1689   1.084       .  S
C1685      C2422   1.409       .  A
C1686      C2421   1.409   1_545  A
C1686      C1687   1.508       .  S
C1687      H1691   1.111       .  S
C1687      H1692   1.111       .  S
C1687      H1693   1.109       .  S
C1690      H1694   1.110       .  S
C1690      H1695   1.110       .  S
C1690      H1696   1.111       .  S
C1697      C1698   1.411       .  A
C1697      C1702   1.403       .  A
C1697      H1704   1.083       .  S
C1698      C2435   1.426       .  A
C1699      C2434   1.426       .  A
C1699      C1700   1.404       .  A
C1699      C1706   1.509       .  S
C1700      C2437   1.396   1_545  A
C1700      H1705   1.085       .  S
C1701      C2436   1.396       .  A
C1701      C1702   1.406       .  A
C1702      C1703   1.508       .  S
C1703      H1707   1.111       .  S
C1703      H1708   1.110       .  S
C1703      H2445   1.111       .  S
C1706      H2446   1.110   1_545  S
C1706      H1711   1.110       .  S
C1706      H1712   1.111       .  S
H1709      C2439   1.111   1_545  S
H1710      C2442   1.110       .  S
C1713      C1714   1.405       .  A
C1713      C1718   1.404       .  A
C1713      H1720   1.084       .  S
C1714      C1715   1.418       .  A
C1715      C1716   1.404       .  A
C1715      C1722   1.509       .  S
C1716      C1717   1.405       .  A
C1716      H1721   1.084       .  S
C1717      C1718   1.418       .  A
C1718      C1719   1.509       .  S
C1719      H1723   1.111       .  S
C1719      H1724   1.111       .  S
C1719      H1725   1.109       .  S
C1722      H1726   1.109       .  S
C1722      H1727   1.110       .  S
C1722      H1728   1.111       .  S
C1729      C1730   1.406       .  A
C1729      C1734   1.404       .  A
C1729      H1736   1.083       .  S
C1730      C1731   1.421       .  A
C1731      C1732   1.405       .  A
C1731      C1738   1.509       .  S
C1732      C1733   1.407       .  A
C1732      H1737   1.083       .  S
C1733      C1734   1.421       .  A
C1734      C1735   1.510       .  S
C1735      H1739   1.111       .  S
C1735      H1740   1.110       .  S
C1735      H1741   1.110       .  S
C1738      H1742   1.110       .  S
C1738      H1743   1.110       .  S
C1738      H1744   1.111       .  S
C1745      C1746   1.405       .  A
C1745      C1750   1.405       .  A
C1745      H1752   1.084       .  S
C1747      C1748   1.402       .  A
C1747      C1754   1.509       .  S
C1748      H1753   1.085       .  S
C1749      C1750   1.414       .  A
C1750      C1751   1.508       .  S
C1751      H1755   1.111       .  S
C1751      H1756   1.111       .  S
C1751      H1757   1.110       .  S
C1754      H1758   1.110       .  S
C1754      H1759   1.105       .  S
C1754      H1760   1.110       .  S
C1761      C1766   1.404       .  A
C1761      H1768   1.084       .  S
C1762      C1763   1.412       .  A
C1763      C1764   1.405       .  A
C1763      C1770   1.508       .  S
C1764      C1765   1.406   1_655  A
C1764      H1769   1.084       .  S
C1766      C1767   1.508       .  S
C1767      H1771   1.111       .  S
C1767      H1772   1.109       .  S
C1767      H1773   1.110       .  S
C1770      H1774   1.109       .  S
C1770      H1775   1.111       .  S
C1770      H1776   1.111       .  S
C1777      C1778   1.406       .  A
C1777      C1782   1.404       .  A
C1777      H1784   1.084       .  S
C1779      C1780   1.404       .  A
C1779      C1786   1.508       .  S
C1780      H1785   1.084       .  S
C1781      C2518   1.411   1_545  A
C1782      C2517   1.411       .  A
C1782      C1783   1.508       .  S
C1783      H1787   1.111       .  S
C1783      H1788   1.111       .  S
C1783      H1789   1.109       .  S
C1786      H1790   1.111       .  S
C1786      H1791   1.109       .  S
C1786      H1792   1.111       .  S
C1793      C1798   1.404       .  A
C1793      H1800   1.085       .  S
C1794      C1795   1.411       .  A
C1795      C1796   1.403       .  A
C1795      C1802   1.507       .  S
C1796      C1797   1.406   1_545  A
C1796      H1801   1.084       .  S
C1798      C1799   1.508       .  S
C1799      H1803   1.111       .  S
C1799      H1804   1.110       .  S
C1799      H1805   1.109       .  S
C1802      H1806   1.111       .  S
C1802      H1807   1.109       .  S
C1802      H1808   1.111       .  S
C1809      C1814   1.404       .  A
C1809      H1816   1.083       .  S
C1810      C1811   1.420       .  A
C1811      C1812   1.404       .  A
C1811      C1818   1.510       .  S
C1812      C1813   1.407   1_655  A
C1812      H1817   1.083       .  S
C1814      C1815   1.509       .  S
C1815      H1819   1.111       .  S
C1815      H1820   1.110       .  S
C1815      H1821   1.110       .  S
C1818      H1822   1.110       .  S
C1818      H1823   1.110       .  S
C1818      H1824   1.111       .  S
C1825      C1830   1.403       .  A
C1825      H1832   1.084       .  S
C1826      C1827   1.419       .  A
C1827      C1828   1.404       .  A
C1827      C1834   1.509       .  S
C1828      C1829   1.406   1_655  A
C1828      H1833   1.084       .  S
C1830      C1831   1.509       .  S
C1831      H1835   1.111       .  S
C1831      H1836   1.110       .  S
C1831      H1837   1.108       .  S
C1834      H1838   1.111       .  S
C1834      H1839   1.110       .  S
C1834      H1840   1.111       .  S
O1841     Ni2585   1.915       .  S
O1842     Ni1849   1.915       .  S
O1843     Ni1849   1.915       .  S
O1843      C1853   1.282   1_655  A
O1844     Ni2585   1.917       .  S
O1844      C1854   1.283   1_655  A
O1845     Ni2586   1.914       .  S
O1846     Ni1850   1.916       .  S
O1847     Ni2586   1.918       .  S
O1847      C2588   1.282       .  A
O1848     Ni1850   1.918       .  S
O1848      C2587   1.281       .  A
Ni1849     O2577   1.915       .  S
Ni1849     O2580   1.917       .  S
Ni1850     O2581   1.914       .  S
Ni1850     O2583   1.918       .  S
C1851      O2584   1.281       .  A
C1851      C2162   1.473       .  S
C1852      O2583   1.282       .  A
C1852      C2146   1.485       .  S
C1853      C2181   1.494       .  S
C1854      C2197   1.490       .  S
O1855     Ni1863   1.915       .  S
O1856     Ni1863   1.913       .  S
O1857     Ni1863   1.918       .  S
O1858     Ni1863   1.913       .  S
O1859     Ni1864   1.917       .  S
O1859      C1868   1.281       .  A
O1860     Ni1864   1.913       .  S
O1860      C1867   1.279       .  A
O1861     Ni1864   1.920       .  S
O1861      C1866   1.281       .  A
O1862     Ni1864   1.920       .  S
O1862      C1865   1.281       .  A
C1865      C2130   1.476       .  S
C1866      C2117   1.481       .  S
C1867      C2178   1.494       .  S
C1868      C2194   1.490       .  S
O1869     Ni2613   1.912       .  S
O1869      C2615   1.279       .  A
O1870     Ni1877   1.911       .  S
O1870      C1880   1.281       .  A
O1871     Ni1877   1.919       .  S
O1871      C1881   1.282       .  A
O1872     Ni2613   1.919       .  S
O1872      C1882   1.283       .  A
O1873     Ni2614   1.914       .  S
O1873      C1882   1.279       .  A
O1874     Ni1878   1.913       .  S
O1874      C1881   1.279       .  A
O1875     Ni2614   1.919   1_565  S
O1875      C2616   1.281       .  A
O1876     Ni1878   1.920       .  S
O1876      C1879   1.283       .  A
Ni1877     O2605   1.912       .  S
Ni1877     O2608   1.919       .  S
Ni1877    Ni1878   2.380       .  S
Ni1878     O2609   1.914       .  S
Ni1878     O2611   1.920       .  S
C1879      O2605   1.279       .  A
C1879      C2066   1.495       .  S
C1880      O2611   1.281       .  A
C1880      C2050   1.486       .  S
C1881      C2085   1.488       .  S
C1882      C2098   1.495       .  S
O1883     Ni1891   1.917       .  S
O1883      C1893   1.282       .  A
O1884     Ni1891   1.916       .  S
O1884      C1894   1.280       .  A
O1885     Ni1891   1.918       .  S
O1885      C1895   1.282       .  A
O1886     Ni1891   1.921       .  S
O1886      C1896   1.284       .  A
O1887     Ni1892   1.913       .  S
O1887      C1896   1.279       .  A
O1888     Ni1892   1.914       .  S
O1888      C1895   1.280       .  A
O1889     Ni1892   1.913       .  S
O1889      C1894   1.279       .  A
O1890     Ni1892   1.912       .  S
O1890      C1893   1.280       .  A
Ni1891    Ni1892   2.383       .  S
C1893      C2037   1.492       .  S
C1894      C2018   1.467       .  S
C1895      C2082   1.487       .  S
C1896      C2101   1.495       .  S
O1897     Ni1905   1.915   1_556  S
O1897      C2643   1.280       .  A
O1898      C2644   1.280       .  A
O1899      C1909   1.279   1_554  A
O1901      C2646   1.279       .  A
O1902      C2277   1.281   1_545  A
O1903     Ni1906   1.918       .  S
Ni1905    Ni2274   2.385       .  S
Ni1906    Ni2273   2.385   1_545  S
C1907      O2633   1.280       .  A
C1907      C2165   1.484       .  S
C1908      O2634   1.280   1_545  A
C1909      O2270   1.281       .  A
C1909      C1986   1.488       .  S
C1910      O2637   1.279       .  A
C1910      C2005   1.479       .  S
O1911     Ni1919   1.913   1_556  S
O1911      C1921   1.280       .  A
O1912      C1922   1.281   1_455  A
O1913     Ni1919   1.921   1_655  S
O1913      C1923   1.282       .  A
O1915      C1924   1.281       .  A
O1916     Ni1920   1.920       .  S
O1917     Ni1920   1.918       .  S
O1917      C1922   1.281       .  A
O1918      C1921   1.283       .  A
C1921      C2133   1.485       .  S
C1922      C2114   1.478       .  S
C1923      C1954   1.481       .  S
C1924      C1970   1.475       .  S
O1925      C2671   1.279   1_554  A
O1926     Ni1933   1.908       .  S
O1926      C2672   1.280   1_545  A
O1927     Ni1933   1.914       .  S
O1927      C2673   1.280   1_545  A
O1928      C2674   1.279   1_545  A
O1929     Ni1934   1.916       .  S
O1929      C1938   1.280       .  A
O1930      C1937   1.280       .  A
O1931     Ni1934   1.912   1_554  S
Ni1933    Ni2302   2.388   1_545  S
Ni1934    Ni2301   2.388   1_556  S
C1935      O2661   1.279   1_556  A
C1935      C1989   1.488       .  S
C1936      O2662   1.280       .  A
C1937      O2663   1.280       .  A
C1937      C2053   1.470       .  S
C1938      O2664   1.279       .  A
C1938      C2069   1.467       .  S
O1939     Ni1947   1.914       .  S
O1939      C1949   1.279       .  A
O1940      C1950   1.280       .  A
O1941     Ni1947   1.925       .  S
O1941      C1951   1.282       .  A
O1943      C1952   1.281       .  A
O1944     Ni1948   1.924       .  S
O1945     Ni1948   1.914       .  S
O1945      C1950   1.282       .  A
O1946      C1949   1.281       .  A
C1949      C2034   1.469       .  S
C1950      C2021   1.489       .  S
C1951      C1973   1.479       .  S
C1952      C1957   1.481       .  S
C1953      C1958   1.405       .  A
C1953      H1960   1.084       .  S
C1954      C1955   1.415   1_554  A
C1955      C1956   1.407       .  A
C1955      C1962   1.507       .  S
C1956      C1957   1.404       .  A
C1956      H1961   1.084       .  S
C1958      C1959   1.508       .  S
C1959      H1963   1.111       .  S
C1959      H1964   1.111       .  S
C1959      H1965   1.109       .  S
C1962      H1966   1.109       .  S
C1962      H1967   1.111       .  S
C1962      H1968   1.111       .  S
C1969      C1970   1.401   1_556  A
C1969      C1974   1.404       .  A
C1969      H1976   1.084       .  S
C1971      C1972   1.407       .  A
C1971      C1978   1.506       .  S
C1972      H1977   1.085       .  S
C1973      C1974   1.411       .  A
C1974      C1975   1.500       .  S
C1975      H1979   1.111       .  S
C1975      H1980   1.110       .  S
C1975      H1981   1.110       .  S
C1978      H1982   1.110       .  S
C1978      H1983   1.108       .  S
C1978      H1984   1.110       .  S
C1985      C2354   1.406   1_545  A
C1985      C1990   1.401       .  A
C1985      H1992   1.083       .  S
C1986      C2353   1.406   1_556  A
C1986      C1987   1.418       .  A
C1987      C1988   1.401       .  A
C1987      C1994   1.510       .  S
C1988      C1989   1.407       .  A
C1988      H1993   1.083       .  S
C1989      C2358   1.419   1_556  A
C1990      C2357   1.419       .  A
C1990      C1991   1.510       .  S
C1991      H1995   1.111       .  S
C1991      H1996   1.110       .  S
C1994      H1999   1.110       .  S
C1994      H2000   1.111       .  S
C2001      C2738   1.404   1_546  A
C2001      C2006   1.400       .  A
C2001      H2008   1.084       .  S
C2002      C2737   1.405   1_554  A
C2003      C2004   1.401       .  A
C2003      C2010   1.509       .  S
C2004      H2009   1.084       .  S
C2005      C2742   1.416   1_554  A
C2006      C2741   1.416   1_556  A
C2006      C2007   1.509       .  S
C2007      H2011   1.111       .  S
C2007      H2012   1.110       .  S
C2007      H2013   1.111       .  S
C2010      H2014   1.111       .  S
C2010      H2015   1.110       .  S
C2010      H2016   1.111       .  S
C2017      C2018   1.398       .  A
C2017      C2022   1.404       .  A
C2017      H2024   1.084       .  S
C2018      C2019   1.407       .  A
C2019      C2020   1.402       .  A
C2019      C2026   1.508       .  S
C2020      C2021   1.409       .  A
C2020      H2025   1.083       .  S
C2021      C2022   1.422       .  A
C2022      C2023   1.508       .  S
C2023      H2027   1.111       .  S
C2023      H2028   1.110       .  S
C2023      H2029   1.110       .  S
C2026      H2030   1.110       .  S
C2026      H2031   1.110       .  S
C2026      H2032   1.111       .  S
C2033      C2034   1.394       .  A
C2033      C2038   1.400       .  A
C2033      H2040   1.075       .  S
C2034      C2035   1.406       .  A
C2035      C2036   1.405       .  A
C2035      C2042   1.506       .  S
C2036      C2037   1.412       .  A
C2036      H2041   1.083       .  S
C2037      C2038   1.423       .  A
C2038      C2039   1.510       .  S
C2039      H2043   1.111       .  S
C2039      H2044   1.110       .  S
C2039      H2045   1.110       .  S
C2042      H2046   1.110       .  S
C2042      H2047   1.110       .  S
C2042      H2048   1.111       .  S
C2049      C2786   1.408   1_545  A
C2049      C2054   1.402       .  A
C2049      H2056   1.084       .  S
C2050      C2785   1.408       .  A
C2050      C2051   1.419       .  A
C2051      C2052   1.405       .  A
C2051      C2058   1.508       .  S
C2052      C2053   1.400       .  A
C2052      H2057   1.084       .  S
C2053      C2790   1.409       .  A
C2054      C2789   1.409   1_545  A
C2054      C2055   1.508       .  S
C2055      H2059   1.111       .  S
C2055      H2060   1.111       .  S
C2055      H2061   1.109       .  S
C2058      H2062   1.110       .  S
C2058      H2063   1.110       .  S
C2058      H2064   1.111       .  S
C2065      C2066   1.411       .  A
C2065      C2070   1.403       .  A
C2065      H2072   1.083       .  S
C2066      C2803   1.426       .  A
C2067      C2802   1.426       .  A
C2067      C2068   1.405       .  A
C2067      C2074   1.509       .  S
C2068      C2805   1.396   1_545  A
C2068      H2073   1.085       .  S
C2069      C2804   1.396       .  A
C2069      C2070   1.406       .  A
C2070      C2071   1.508       .  S
C2071      H2075   1.111       .  S
C2071      H2076   1.110       .  S
C2071      H2813   1.111       .  S
C2074      H2814   1.110   1_545  S
C2074      H2079   1.110       .  S
C2074      H2080   1.111       .  S
H2077      C2807   1.111   1_545  S
H2078      C2810   1.110       .  S
C2081      C2082   1.405       .  A
C2081      C2086   1.404       .  A
C2081      H2088   1.084       .  S
C2082      C2083   1.418       .  A
C2083      C2084   1.404       .  A
C2083      C2090   1.509       .  S
C2084      C2085   1.405       .  A
C2084      H2089   1.084       .  S
C2085      C2086   1.418       .  A
C2086      C2087   1.509       .  S
C2087      H2091   1.111       .  S
C2087      H2092   1.111       .  S
C2087      H2093   1.109       .  S
C2090      H2094   1.109       .  S
C2090      H2095   1.110       .  S
C2090      H2096   1.111       .  S
C2097      C2098   1.406       .  A
C2097      C2102   1.404       .  A
C2097      H2104   1.083       .  S
C2098      C2099   1.421       .  A
C2099      C2100   1.405       .  A
C2099      C2106   1.509       .  S
C2100      C2101   1.406       .  A
C2100      H2105   1.083       .  S
C2101      C2102   1.421       .  A
C2102      C2103   1.510       .  S
C2103      H2107   1.111       .  S
C2103      H2108   1.110       .  S
C2103      H2109   1.110       .  S
C2106      H2110   1.110       .  S
C2106      H2111   1.110       .  S
C2106      H2112   1.111       .  S
C2113      C2114   1.405       .  A
C2113      C2118   1.405       .  A
C2113      H2120   1.084       .  S
C2115      C2116   1.402       .  A
C2115      C2122   1.509       .  S
C2116      H2121   1.085       .  S
C2117      C2118   1.414       .  A
C2118      C2119   1.508       .  S
C2119      H2123   1.111       .  S
C2119      H2124   1.111       .  S
C2119      H2125   1.110       .  S
C2122      H2126   1.110       .  S
C2122      H2127   1.105       .  S
C2122      H2128   1.110       .  S
C2129      C2134   1.404       .  A
C2129      H2136   1.084       .  S
C2130      C2131   1.412       .  A
C2131      C2132   1.405       .  A
C2131      C2138   1.508       .  S
C2132      C2133   1.406   1_655  A
C2132      H2137   1.084       .  S
C2134      C2135   1.508       .  S
C2135      H2139   1.111       .  S
C2135      H2140   1.109       .  S
C2135      H2141   1.110       .  S
C2138      H2142   1.109       .  S
C2138      H2143   1.111       .  S
C2138      H2144   1.111       .  S
C2145      C2146   1.406       .  A
C2145      C2150   1.403       .  A
C2145      H2152   1.084       .  S
C2147      C2148   1.404       .  A
C2147      C2154   1.508       .  S
C2148      H2153   1.084       .  S
C2149      C2886   1.411   1_545  A
C2150      C2885   1.411       .  A
C2150      C2151   1.508       .  S
C2151      H2155   1.111       .  S
C2151      H2156   1.111       .  S
C2151      H2157   1.109       .  S
C2154      H2158   1.111       .  S
C2154      H2159   1.109       .  S
C2154      H2160   1.111       .  S
C2161      C2166   1.404       .  A
C2161      H2168   1.085       .  S
C2162      C2163   1.411       .  A
C2163      C2164   1.403       .  A
C2163      C2170   1.506       .  S
C2164      C2165   1.406   1_545  A
C2164      H2169   1.084       .  S
C2166      C2167   1.508       .  S
C2167      H2171   1.111       .  S
C2167      H2172   1.110       .  S
C2167      H2173   1.109       .  S
C2170      H2174   1.111       .  S
C2170      H2175   1.109       .  S
C2170      H2176   1.111       .  S
C2177      C2182   1.404       .  A
C2177      H2184   1.083       .  S
C2178      C2179   1.420       .  A
C2179      C2180   1.404       .  A
C2179      C2186   1.510       .  S
C2180      C2181   1.407   1_655  A
C2180      H2185   1.083       .  S
C2182      C2183   1.509       .  S
C2183      H2187   1.111       .  S
C2183      H2188   1.110       .  S
C2183      H2189   1.110       .  S
C2186      H2190   1.110       .  S
C2186      H2191   1.110       .  S
C2186      H2192   1.111       .  S
C2193      C2198   1.403       .  A
C2193      H2200   1.084       .  S
C2194      C2195   1.419       .  A
C2195      C2196   1.404       .  A
C2195      C2202   1.509       .  S
C2196      C2197   1.406   1_655  A
C2196      H2201   1.084       .  S
C2198      C2199   1.509       .  S
C2199      H2203   1.111       .  S
C2199      H2204   1.110       .  S
C2199      H2205   1.108       .  S
C2202      H2206   1.111       .  S
C2202      H2207   1.110       .  S
C2202      H2208   1.111       .  S
O2210     Ni2217   1.915       .  S
O2211     Ni2217   1.915   1_565  S
O2211      C2221   1.282   1_655  A
O2212      C2222   1.283   1_655  A
O2214     Ni2218   1.916   1_565  S
O2216     Ni2218   1.917       .  S
C2219      C2530   1.473       .  S
C2220      C2514   1.485       .  S
C2221      C2549   1.494       .  S
C2222      C2565   1.490       .  S
O2223     Ni2231   1.915       .  S
O2224     Ni2231   1.913       .  S
O2225     Ni2231   1.918       .  S
O2226     Ni2231   1.913       .  S
O2227     Ni2232   1.917       .  S
O2227      C2236   1.281       .  A
O2228     Ni2232   1.913       .  S
O2228      C2235   1.279       .  A
O2229     Ni2232   1.920       .  S
O2229      C2234   1.281       .  A
O2230     Ni2232   1.920       .  S
O2230      C2233   1.281       .  A
C2233      C2498   1.476       .  S
C2234      C2485   1.481       .  S
C2235      C2546   1.494       .  S
C2236      C2562   1.490       .  S
O2238     Ni2245   1.911       .  S
O2238      C2248   1.281   1_545  A
O2239     Ni2245   1.919   1_565  S
O2239      C2249   1.282       .  A
O2240      C2250   1.283       .  A
O2241      C2250   1.279       .  A
O2242     Ni2246   1.913   1_565  S
O2242      C2249   1.279       .  A
O2244     Ni2246   1.920       .  S
O2244      C2247   1.283       .  A
Ni2245    Ni2246   2.380       .  S
C2247      C2434   1.495       .  S
C2248      C2418   1.486       .  S
C2249      C2453   1.488       .  S
C2250      C2466   1.495       .  S
O2251     Ni2259   1.917       .  S
O2251      C2261   1.282       .  A
O2252     Ni2259   1.916       .  S
O2252      C2262   1.280       .  A
O2253     Ni2259   1.918       .  S
O2253      C2263   1.282       .  A
O2254     Ni2259   1.921       .  S
O2254      C2264   1.284       .  A
O2255     Ni2260   1.913       .  S
O2255      C2264   1.279       .  A
O2256     Ni2260   1.914       .  S
O2256      C2263   1.280       .  A
O2257     Ni2260   1.913       .  S
O2257      C2262   1.279       .  A
O2258     Ni2260   1.912       .  S
O2258      C2261   1.280       .  A
Ni2259    Ni2260   2.383       .  S
C2261      C2405   1.492       .  S
C2262      C2386   1.467       .  S
C2263      C2450   1.487       .  S
C2264      C2469   1.495       .  S
O2265     Ni2273   1.915       .  S
O2267      C2277   1.279       .  A
O2268     Ni2641   1.908       .  S
O2268      C2646   1.280   1_565  A
O2269     Ni2642   1.909       .  S
O2271     Ni2274   1.918       .  S
Ni2273     O2636   1.909       .  S
Ni2274     O2637   1.910       .  S
C2275      C2533   1.484       .  S
C2277      C2354   1.488       .  S
C2278      O2636   1.281   1_545  A
C2278      C2373   1.479       .  S
O2279     Ni2287   1.913       .  S
O2279      C2289   1.280       .  A
O2280     Ni2655   1.918       .  S
O2280      C2290   1.281   1_455  A
O2281     Ni2287   1.921   1_655  S
O2281      C2291   1.282       .  A
O2282      C2660   1.281       .  A
O2283      C2292   1.281       .  A
O2284     Ni2288   1.920       .  S
O2284      C2659   1.281       .  A
O2285     Ni2288   1.918       .  S
O2285      C2290   1.281       .  A
O2286     Ni2656   1.923   1_455  S
O2286      C2289   1.283       .  A
Ni2287     O2648   1.918       .  S
Ni2287    Ni2656   2.388   1_455  S
Ni2288     O2654   1.923   1_654  S
Ni2288    Ni2655   2.388   1_655  S
C2289      C2501   1.485       .  S
C2290      C2482   1.478       .  S
C2291      O2652   1.281       .  A
C2291      C2322   1.481       .  S
C2292      O2650   1.281       .  A
C2292      C2338   1.475       .  S
O2293     Ni2669   1.911       .  S
O2294     Ni2301   1.908       .  S
O2295     Ni2301   1.914       .  S
O2296     Ni2669   1.914       .  S
O2297     Ni2302   1.916       .  S
O2297      C2306   1.280       .  A
O2298     Ni2670   1.916   1_554  S
O2298      C2305   1.280       .  A
O2299     Ni2302   1.912       .  S
O2299      C2672   1.280       .  A
O2300     Ni2670   1.908       .  S
O2300      C2671   1.281   1_565  A
Ni2301     O2661   1.911       .  S
Ni2301     O2664   1.914   1_554  S
Ni2302     O2666   1.916       .  S
Ni2302     O2668   1.907       .  S
C2303      O2668   1.281   1_545  A
C2303      C2357   1.488       .  S
C2304      O2667   1.280       .  A
C2304      C2738   1.480       .  S
C2305      C2421   1.470       .  S
C2306      C2437   1.467       .  S
O2307     Ni2315   1.914       .  S
O2307      C2317   1.279       .  A
O2308     Ni2683   1.915   1_554  S
O2308      C2318   1.280       .  A
O2309     Ni2315   1.925       .  S
O2309      C2319   1.282       .  A
O2310     Ni2683   1.924       .  S
O2310      C2688   1.282       .  A
O2311     Ni2684   1.919       .  S
O2311      C2320   1.281       .  A
O2312     Ni2316   1.924       .  S
O2312      C2687   1.281       .  A
O2313     Ni2316   1.914   1_554  S
O2313      C2318   1.282       .  A
O2314     Ni2684   1.920       .  S
O2314      C2317   1.281       .  A
Ni2315     O2676   1.915       .  S
Ni2315     O2678   1.924       .  S
Ni2315    Ni2684   2.388       .  S
Ni2316     O2679   1.919       .  S
Ni2316     O2682   1.920       .  S
Ni2316    Ni2683   2.388       .  S
C2317      C2402   1.469       .  S
C2318      C2389   1.489       .  S
C2319      O2680   1.281       .  A
C2319      C2341   1.479       .  S
C2320      O2678   1.282       .  A
C2320      C2325   1.481       .  S
C2321      C2690   1.403       .  A
C2321      C2326   1.405       .  A
C2321      H2328   1.084       .  S
C2322      C2689   1.403       .  A
C2322      C2323   1.415       .  A
C2323      C2324   1.407       .  A
C2323      C2330   1.507       .  S
C2324      C2325   1.404       .  A
C2324      H2329   1.084       .  S
C2325      C2694   1.415       .  A
C2326      C2693   1.415   1_554  A
C2326      C2327   1.508       .  S
C2327      H2331   1.111       .  S
C2327      H2332   1.111       .  S
C2327      H2333   1.109       .  S
C2330      H2334   1.109       .  S
C2330      H2335   1.111       .  S
C2330      H2336   1.111       .  S
C2337      C2338   1.401       .  A
C2337      C2342   1.404       .  A
C2337      H2344   1.084       .  S
C2338      C2707   1.415       .  A
C2339      C2706   1.415       .  A
C2339      C2340   1.407       .  A
C2339      C2346   1.506       .  S
C2340      C2709   1.403   1_554  A
C2340      H2345   1.085       .  S
C2341      C2708   1.403       .  A
C2341      C2342   1.411       .  A
C2342      C2343   1.500       .  S
C2343      H2347   1.111       .  S
C2343      H2348   1.110       .  S
C2343      H2349   1.110       .  S
C2346      H2350   1.110       .  S
C2346      H2351   1.108       .  S
C2346      H2352   1.110       .  S
C2353      C2358   1.401       .  A
C2353      H2360   1.083       .  S
C2354      C2355   1.418       .  A
C2355      C2356   1.401       .  A
C2355      C2362   1.510       .  S
C2356      C2357   1.407   1_565  A
C2356      H2361   1.083       .  S
C2358      C2359   1.510       .  S
C2359      H2363   1.111       .  S
C2359      H2364   1.110       .  S
C2359      H2733   1.110   1_554  S
C2362      H2734   1.110       .  S
C2362      H2367   1.110       .  S
C2362      H2368   1.111       .  S
H2365      C2727   1.110       .  S
H2366      C2730   1.110   1_554  S
C2369      C2374   1.401       .  A
C2369      H2376   1.084       .  S
C2370      C2672   1.480       .  S
C2370      C2739   1.416       .  A
C2371      C2738   1.416       .  A
C2371      C2372   1.401       .  A
C2371      C2378   1.509       .  S
C2372      C2741   1.405   1_565  A
C2372      H2377   1.084       .  S
C2373      C2740   1.404   1_545  A
C2374      C2375   1.509       .  S
C2375      H2379   1.111       .  S
C2375      H2380   1.110       .  S
C2375      H2381   1.111       .  S
C2378      H2382   1.111       .  S
C2378      H2383   1.110       .  S
C2378      H2384   1.111       .  S
C2385      C2386   1.398       .  A
C2385      C2390   1.404       .  A
C2385      H2392   1.084       .  S
C2386      C2387   1.407       .  A
C2387      C2388   1.402       .  A
C2387      C2394   1.508       .  S
C2388      C2389   1.409       .  A
C2388      H2393   1.083       .  S
C2389      C2390   1.422       .  A
C2390      C2391   1.508       .  S
C2391      H2395   1.111       .  S
C2391      H2396   1.110       .  S
C2391      H2397   1.110       .  S
C2394      H2398   1.110       .  S
C2394      H2399   1.110       .  S
C2394      H2400   1.111       .  S
C2401      C2402   1.394       .  A
C2401      C2406   1.400       .  A
C2401      H2408   1.075       .  S
C2402      C2403   1.406       .  A
C2403      C2404   1.405       .  A
C2403      C2410   1.506       .  S
C2404      C2405   1.412       .  A
C2404      H2409   1.083       .  S
C2405      C2406   1.423       .  A
C2406      C2407   1.510       .  S
C2407      H2411   1.111       .  S
C2407      H2412   1.110       .  S
C2407      H2413   1.110       .  S
C2410      H2414   1.110       .  S
C2410      H2415   1.110       .  S
C2410      H2416   1.111       .  S
C2417      C2422   1.402       .  A
C2417      H2424   1.084       .  S
C2418      C2419   1.419       .  A
C2419      C2420   1.405       .  A
C2419      C2426   1.508       .  S
C2420      C2421   1.400       .  A
C2420      H2425   1.084       .  S
C2422      C2423   1.508       .  S
C2423      H2427   1.111       .  S
C2423      H2428   1.111       .  S
C2423      H2429   1.109       .  S
C2426      H2430   1.110       .  S
C2426      H2431   1.110       .  S
C2426      H2432   1.111       .  S
C2433      C2434   1.411   1_565  A
C2433      C2438   1.403       .  A
C2433      H2440   1.083       .  S
C2435      C2436   1.404       .  A
C2435      C2442   1.509       .  S
C2436      H2441   1.085       .  S
C2437      C2438   1.406       .  A
C2438      C2439   1.508       .  S
C2439      H2443   1.111       .  S
C2439      H2444   1.110       .  S
C2442      H2447   1.110       .  S
C2442      H2448   1.111       .  S
C2449      C2450   1.405       .  A
C2449      C2454   1.404       .  A
C2449      H2456   1.084       .  S
C2450      C2451   1.418       .  A
C2451      C2452   1.404       .  A
C2451      C2458   1.509       .  S
C2452      C2453   1.405       .  A
C2452      H2457   1.084       .  S
C2453      C2454   1.418       .  A
C2454      C2455   1.509       .  S
C2455      H2459   1.111       .  S
C2455      H2460   1.111       .  S
C2455      H2461   1.109       .  S
C2458      H2462   1.109       .  S
C2458      H2463   1.110       .  S
C2458      H2464   1.111       .  S
C2465      C2466   1.406       .  A
C2465      C2470   1.404       .  A
C2465      H2472   1.083       .  S
C2466      C2467   1.421       .  A
C2467      C2468   1.405       .  A
C2467      C2474   1.509       .  S
C2468      C2469   1.406       .  A
C2468      H2473   1.083       .  S
C2469      C2470   1.421       .  A
C2470      C2471   1.510       .  S
C2471      H2475   1.111       .  S
C2471      H2476   1.110       .  S
C2471      H2477   1.110       .  S
C2474      H2478   1.110       .  S
C2474      H2479   1.110       .  S
C2474      H2480   1.111       .  S
C2481      C2482   1.405       .  A
C2481      C2486   1.405       .  A
C2481      H2488   1.084       .  S
C2483      C2484   1.402       .  A
C2483      C2490   1.509       .  S
C2484      H2489   1.085       .  S
C2485      C2486   1.414       .  A
C2486      C2487   1.508       .  S
C2487      H2491   1.111       .  S
C2487      H2492   1.111       .  S
C2487      H2493   1.110       .  S
C2490      H2494   1.110       .  S
C2490      H2495   1.105       .  S
C2490      H2496   1.110       .  S
C2497      C2502   1.404       .  A
C2497      H2504   1.084       .  S
C2498      C2499   1.412       .  A
C2499      C2500   1.405       .  A
C2499      C2506   1.508       .  S
C2500      C2501   1.406   1_655  A
C2500      H2505   1.084       .  S
C2502      C2503   1.508       .  S
C2503      H2507   1.111       .  S
C2503      H2508   1.109       .  S
C2503      H2509   1.110       .  S
C2506      H2510   1.109       .  S
C2506      H2511   1.111       .  S
C2506      H2512   1.111       .  S
C2513      C2514   1.406   1_565  A
C2513      C2518   1.403       .  A
C2513      H2520   1.084       .  S
C2515      C2516   1.404       .  A
C2515      C2522   1.508       .  S
C2516      H2521   1.084       .  S
C2518      C2519   1.508       .  S
C2519      H2523   1.111       .  S
C2519      H2524   1.111       .  S
C2519      H2525   1.109       .  S
C2522      H2526   1.111       .  S
C2522      H2527   1.109       .  S
C2522      H2528   1.111       .  S
C2529      C2534   1.404       .  A
C2529      H2536   1.085       .  S
C2530      C2531   1.411       .  A
C2531      C2532   1.403       .  A
C2531      C2538   1.506       .  S
C2532      C2533   1.406       .  A
C2532      H2537   1.084       .  S
C2534      C2535   1.508       .  S
C2535      H2539   1.111       .  S
C2535      H2540   1.110       .  S
C2535      H2541   1.109       .  S
C2538      H2542   1.111       .  S
C2538      H2543   1.109       .  S
C2538      H2544   1.111       .  S
C2545      C2550   1.404       .  A
C2545      H2552   1.083       .  S
C2546      C2547   1.420       .  A
C2547      C2548   1.404       .  A
C2547      C2554   1.510       .  S
C2548      C2549   1.407   1_655  A
C2548      H2553   1.083       .  S
C2550      C2551   1.509       .  S
C2551      H2555   1.111       .  S
C2551      H2556   1.110       .  S
C2551      H2557   1.110       .  S
C2554      H2558   1.110       .  S
C2554      H2559   1.110       .  S
C2554      H2560   1.111       .  S
C2561      C2566   1.403       .  A
C2561      H2568   1.084       .  S
C2562      C2563   1.419       .  A
C2563      C2564   1.404       .  A
C2563      C2570   1.509       .  S
C2564      C2565   1.406   1_655  A
C2564      H2569   1.084       .  S
C2566      C2567   1.509       .  S
C2567      H2571   1.111       .  S
C2567      H2572   1.110       .  S
C2567      H2573   1.108       .  S
C2570      H2574   1.111       .  S
C2570      H2575   1.110       .  S
C2570      H2576   1.111       .  S
O2578     Ni2585   1.915       .  S
O2579     Ni2585   1.915   1_565  S
O2579      C2589   1.282   1_655  A
O2580      C2590   1.283   1_655  A
O2582     Ni2586   1.917   1_565  S
O2584     Ni2586   1.917       .  S
C2587      C2898   1.473       .  S
C2588      C2882   1.485       .  S
C2589      C2917   1.494       .  S
C2590      C2933   1.490       .  S
O2591     Ni2599   1.915       .  S
O2592     Ni2599   1.913       .  S
O2593     Ni2599   1.918       .  S
O2594     Ni2599   1.913       .  S
O2595     Ni2600   1.917       .  S
O2595      C2604   1.281       .  A
O2596     Ni2600   1.913       .  S
O2596      C2603   1.279       .  A
O2597     Ni2600   1.920       .  S
O2597      C2602   1.281       .  A
O2598     Ni2600   1.920       .  S
O2598      C2601   1.281       .  A
C2601      C2866   1.476       .  S
C2602      C2853   1.481       .  S
C2603      C2914   1.494       .  S
C2604      C2930   1.490       .  S
O2606     Ni2613   1.912       .  S
O2606      C2616   1.281   1_545  A
O2607     Ni2613   1.919   1_565  S
O2607      C2617   1.282       .  A
O2608      C2618   1.283       .  A
O2609      C2618   1.279       .  A
O2610     Ni2614   1.913   1_565  S
O2610      C2617   1.279       .  A
O2612     Ni2614   1.920       .  S
O2612      C2615   1.283       .  A
Ni2613    Ni2614   2.380       .  S
C2615      C2802   1.495       .  S
C2616      C2786   1.486       .  S
C2617      C2821   1.488       .  S
C2618      C2834   1.495       .  S
O2619     Ni2627   1.917       .  S
O2619      C2629   1.282       .  A
O2620     Ni2627   1.916       .  S
O2620      C2630   1.280       .  A
O2621     Ni2627   1.918       .  S
O2621      C2631   1.282       .  A
O2622     Ni2627   1.921       .  S
O2622      C2632   1.284       .  A
O2623     Ni2628   1.913       .  S
O2623      C2632   1.279       .  A
O2624     Ni2628   1.914       .  S
O2624      C2631   1.280       .  A
O2625     Ni2628   1.913       .  S
O2625      C2630   1.279       .  A
O2626     Ni2628   1.912       .  S
O2626      C2629   1.280       .  A
Ni2627    Ni2628   2.383       .  S
C2629      C2773   1.492       .  S
C2630      C2754   1.467       .  S
C2631      C2818   1.487       .  S
C2632      C2837   1.495       .  S
O2633     Ni2641   1.914   1_556  S
O2635      C2645   1.279       .  A
O2639     Ni2642   1.918       .  S
C2643      C2901   1.484       .  S
C2645      C2722   1.488   1_554  S
C2646      C2741   1.479       .  S
O2647     Ni2655   1.913   1_556  S
O2647      C2657   1.280       .  A
O2648      C2658   1.281   1_455  A
O2649     Ni2655   1.921   1_655  S
O2649      C2659   1.282       .  A
O2651      C2660   1.281       .  A
O2652     Ni2656   1.920       .  S
O2653     Ni2656   1.918       .  S
O2653      C2658   1.281       .  A
O2654      C2657   1.283       .  A
C2657      C2869   1.485       .  S
C2658      C2850   1.478       .  S
C2659      C2690   1.481       .  S
C2660      C2706   1.475       .  S
O2662     Ni2669   1.908       .  S
O2663     Ni2669   1.914       .  S
O2665     Ni2670   1.916       .  S
O2665      C2674   1.280       .  A
O2666      C2673   1.280       .  A
O2667     Ni2670   1.913   1_554  S
C2671      C2725   1.488       .  S
C2673      C2789   1.470       .  S
C2674      C2805   1.467       .  S
O2675     Ni2683   1.914       .  S
O2675      C2685   1.279       .  A
O2676      C2686   1.280       .  A
O2677     Ni2683   1.925       .  S
O2677      C2687   1.282       .  A
O2679      C2688   1.281       .  A
O2680     Ni2684   1.924       .  S
O2681     Ni2684   1.914       .  S
O2681      C2686   1.282       .  A
O2682      C2685   1.281       .  A
C2685      C2770   1.469       .  S
C2686      C2757   1.489       .  S
C2687      C2709   1.479       .  S
C2688      C2693   1.481       .  S
C2689      C2694   1.405       .  A
C2689      H2696   1.084       .  S
C2690      C2691   1.415   1_554  A
C2691      C2692   1.407       .  A
C2691      C2698   1.507       .  S
C2692      C2693   1.404       .  A
C2692      H2697   1.084       .  S
C2694      C2695   1.508       .  S
C2695      H2699   1.111       .  S
C2695      H2700   1.111       .  S
C2695      H2701   1.109       .  S
C2698      H2702   1.109       .  S
C2698      H2703   1.111       .  S
C2698      H2704   1.111       .  S
C2705      C2706   1.401   1_556  A
C2705      C2710   1.404       .  A
C2705      H2712   1.084       .  S
C2707      C2708   1.407       .  A
C2707      C2714   1.506       .  S
C2708      H2713   1.085       .  S
C2709      C2710   1.411       .  A
C2710      C2711   1.500       .  S
C2711      H2715   1.111       .  S
C2711      H2716   1.110       .  S
C2711      H2717   1.110       .  S
C2714      H2718   1.110       .  S
C2714      H2719   1.108       .  S
C2714      H2720   1.110       .  S
C2721      C2726   1.401       .  A
C2721      H2728   1.083       .  S
C2722      C2723   1.419       .  A
C2723      C2724   1.401       .  A
C2723      C2730   1.510       .  S
C2724      C2725   1.406   1_565  A
C2724      H2729   1.083       .  S
C2726      C2727   1.510       .  S
C2727      H2731   1.111       .  S
C2727      H2732   1.110       .  S
C2730      H2735   1.110       .  S
C2730      H2736   1.111       .  S
C2737      C2742   1.401       .  A
C2737      H2744   1.084       .  S
C2739      C2740   1.401       .  A
C2739      C2746   1.509       .  S
C2740      H2745   1.084       .  S
C2742      C2743   1.509       .  S
C2743      H2747   1.111       .  S
C2743      H2748   1.110       .  S
C2743      H2749   1.111       .  S
C2746      H2750   1.111       .  S
C2746      H2751   1.110       .  S
C2746      H2752   1.111       .  S
C2753      C2754   1.398       .  A
C2753      C2758   1.404       .  A
C2753      H2760   1.084       .  S
C2754      C2755   1.407       .  A
C2755      C2756   1.402       .  A
C2755      C2762   1.508       .  S
C2756      C2757   1.409       .  A
C2756      H2761   1.083       .  S
C2757      C2758   1.422       .  A
C2758      C2759   1.508       .  S
C2759      H2763   1.111       .  S
C2759      H2764   1.110       .  S
C2759      H2765   1.110       .  S
C2762      H2766   1.110       .  S
C2762      H2767   1.110       .  S
C2762      H2768   1.111       .  S
C2769      C2770   1.394       .  A
C2769      C2774   1.400       .  A
C2769      H2776   1.075       .  S
C2770      C2771   1.406       .  A
C2771      C2772   1.405       .  A
C2771      C2778   1.506       .  S
C2772      C2773   1.412       .  A
C2772      H2777   1.083       .  S
C2773      C2774   1.423       .  A
C2774      C2775   1.510       .  S
C2775      H2779   1.111       .  S
C2775      H2780   1.110       .  S
C2775      H2781   1.110       .  S
C2778      H2782   1.110       .  S
C2778      H2783   1.110       .  S
C2778      H2784   1.111       .  S
C2785      C2790   1.402       .  A
C2785      H2792   1.084       .  S
C2786      C2787   1.419       .  A
C2787      C2788   1.405       .  A
C2787      C2794   1.508       .  S
C2788      C2789   1.400       .  A
C2788      H2793   1.084       .  S
C2790      C2791   1.508       .  S
C2791      H2795   1.111       .  S
C2791      H2796   1.111       .  S
C2791      H2797   1.109       .  S
C2794      H2798   1.110       .  S
C2794      H2799   1.110       .  S
C2794      H2800   1.111       .  S
C2801      C2802   1.411   1_565  A
C2801      C2806   1.403       .  A
C2801      H2808   1.083       .  S
C2803      C2804   1.404       .  A
C2803      C2810   1.509       .  S
C2804      H2809   1.085       .  S
C2805      C2806   1.406       .  A
C2806      C2807   1.508       .  S
C2807      H2811   1.111       .  S
C2807      H2812   1.110       .  S
C2810      H2815   1.110       .  S
C2810      H2816   1.111       .  S
C2817      C2818   1.405       .  A
C2817      C2822   1.404       .  A
C2817      H2824   1.084       .  S
C2818      C2819   1.418       .  A
C2819      C2820   1.404       .  A
C2819      C2826   1.509       .  S
C2820      C2821   1.405       .  A
C2820      H2825   1.084       .  S
C2821      C2822   1.418       .  A
C2822      C2823   1.509       .  S
C2823      H2827   1.111       .  S
C2823      H2828   1.111       .  S
C2823      H2829   1.109       .  S
C2826      H2830   1.109       .  S
C2826      H2831   1.110       .  S
C2826      H2832   1.111       .  S
C2833      C2834   1.406       .  A
C2833      C2838   1.404       .  A
C2833      H2840   1.083       .  S
C2834      C2835   1.421       .  A
C2835      C2836   1.405       .  A
C2835      C2842   1.509       .  S
C2836      C2837   1.406       .  A
C2836      H2841   1.083       .  S
C2837      C2838   1.421       .  A
C2838      C2839   1.510       .  S
C2839      H2843   1.111       .  S
C2839      H2844   1.110       .  S
C2839      H2845   1.110       .  S
C2842      H2846   1.110       .  S
C2842      H2847   1.110       .  S
C2842      H2848   1.111       .  S
C2849      C2850   1.405       .  A
C2849      C2854   1.405       .  A
C2849      H2856   1.084       .  S
C2851      C2852   1.402       .  A
C2851      C2858   1.509       .  S
C2852      H2857   1.085       .  S
C2853      C2854   1.414       .  A
C2854      C2855   1.508       .  S
C2855      H2859   1.111       .  S
C2855      H2860   1.111       .  S
C2855      H2861   1.110       .  S
C2858      H2862   1.110       .  S
C2858      H2863   1.105       .  S
C2858      H2864   1.110       .  S
C2865      C2870   1.404       .  A
C2865      H2872   1.084       .  S
C2866      C2867   1.412       .  A
C2867      C2868   1.405       .  A
C2867      C2874   1.508       .  S
C2868      C2869   1.406   1_655  A
C2868      H2873   1.084       .  S
C2870      C2871   1.508       .  S
C2871      H2875   1.111       .  S
C2871      H2876   1.109       .  S
C2871      H2877   1.110       .  S
C2874      H2878   1.109       .  S
C2874      H2879   1.111       .  S
C2874      H2880   1.111       .  S
C2881      C2882   1.406   1_565  A
C2881      C2886   1.404       .  A
C2881      H2888   1.084       .  S
C2883      C2884   1.404       .  A
C2883      C2890   1.508       .  S
C2884      H2889   1.084       .  S
C2886      C2887   1.508       .  S
C2887      H2891   1.111       .  S
C2887      H2892   1.111       .  S
C2887      H2893   1.109       .  S
C2890      H2894   1.111       .  S
C2890      H2895   1.109       .  S
C2890      H2896   1.111       .  S
C2897      C2902   1.404       .  A
C2897      H2904   1.085       .  S
C2898      C2899   1.411       .  A
C2899      C2900   1.403       .  A
C2899      C2906   1.506       .  S
C2900      C2901   1.406       .  A
C2900      H2905   1.084       .  S
C2902      C2903   1.508       .  S
C2903      H2907   1.111       .  S
C2903      H2908   1.110       .  S
C2903      H2909   1.109       .  S
C2906      H2910   1.111       .  S
C2906      H2911   1.109       .  S
C2906      H2912   1.111       .  S
C2913      C2918   1.404       .  A
C2913      H2920   1.083       .  S
C2914      C2915   1.420       .  A
C2915      C2916   1.404       .  A
C2915      C2922   1.510       .  S
C2916      C2917   1.407   1_655  A
C2916      H2921   1.083       .  S
C2918      C2919   1.509       .  S
C2919      H2923   1.111       .  S
C2919      H2924   1.110       .  S
C2919      H2925   1.110       .  S
C2922      H2926   1.110       .  S
C2922      H2927   1.110       .  S
C2922      H2928   1.111       .  S
C2929      C2934   1.403       .  A
C2929      H2936   1.084       .  S
C2930      C2931   1.419       .  A
C2931      C2932   1.404       .  A
C2931      C2938   1.509       .  S
C2932      C2933   1.406   1_655  A
C2932      H2937   1.084       .  S
C2934      C2935   1.509       .  S
C2935      H2939   1.111       .  S
C2935      H2940   1.110       .  S
C2935      H2941   1.108       .  S
C2938      H2942   1.111       .  S
C2938      H2943   1.110       .  S
C2938      H2944   1.111       .  S
