geometry optimzed in LAMMPS
_audit_creation_date              2020-11-30 
_audit_creation_method            'lammps2cif' 
_symmetry_space_group_name_H-M    'P1' 
_symmetry_Int_Tables_number       1 
_symmetry_cell_setting            triclinic 
loop_ 
_symmetry_equiv_pos_as_xyz 
  x,y,z 
_cell_length_a                    51.56852506 
_cell_length_b                    51.47008008864349 
_cell_length_c                    43.83758406364543 
_cell_angle_alpha                 89.96098297142588 
_cell_angle_beta                  90.06153690070231 
_cell_angle_gamma                 120.04739288709673 
loop_ 
_atom_site_label 
_atom_site_type_symbol 
_atom_site_fract_x 
_atom_site_fract_y 
_atom_site_fract_z 
_atom_site_charge 
C1          C  0.23700835  0.21138203  0.15422992     0.80800
N2          N  0.23488877  0.21122465  0.12323954    -0.77500
C3          C  0.25774933  0.23297062  0.10656325     0.83200
N4          N  0.28222039  0.25492469  0.12098837    -0.77400
C5          C  0.28452652  0.25507643  0.15177271     0.83300
N6          N  0.26188237  0.23322432  0.16822213    -0.79200
C7          C  0.23169919  0.21309615  0.02652247     0.80800
N8          N  0.23297143  0.21153179  0.05743986    -0.77500
C9          C  0.25632061  0.23375654  0.07313916     0.83200
N10         N  0.27846107  0.25751189  0.05783464    -0.77400
C11         C  0.27722627  0.25934728  0.02709171     0.83300
N12         N  0.25375563  0.23724618  0.01171139    -0.79200
C13         C  0.23577064  0.45606006  0.14930398     0.80800
N14         N  0.23590529  0.45620471  0.11823795    -0.77500
C15         C  0.21243241  0.45454966  0.10233851     0.83200
N16         N  0.18884888  0.45307661  0.11761632    -0.77400
C17         C  0.18815678  0.45242952  0.14853550     0.83300
N18         N  0.21164683  0.45400303  0.16420103    -0.79200
C19         C  0.23827771  0.46172079  0.02220245     0.80800
N20         N  0.21530382  0.46186266  0.00735172    -0.77500
C21         C  0.19115783  0.45883222  0.02263496     0.83200
N22         N  0.19005031  0.45595261  0.05345430    -0.77400
C23         C  0.21299378  0.45589223  0.06880342     0.83300
N24         N  0.23704273  0.45872879  0.05309935    -0.79200
C25         C  0.48562970  0.23823830  0.15084544     0.80800
N26         N  0.48284593  0.23750215  0.11980839    -0.77500
C27         C  0.47993713  0.21348735  0.10383783     0.83200
N28         N  0.47977102  0.19037823  0.11882764    -0.77400
C29         C  0.48229180  0.19065981  0.14946028     0.83300
N30         N  0.48501139  0.21453387  0.16528376    -0.79200
C31         C  0.46901000  0.22753432  0.02276473     0.80800
N32         N  0.46878426  0.20351722  0.00938210    -0.77500
C33         C  0.47239666  0.18352818  0.02636319     0.83200
N34         N  0.47639020  0.18757763  0.05675238    -0.77400
C35         C  0.47635971  0.21108829  0.07059302     0.83300
N36         N  0.47285578  0.23125885  0.05359302    -0.79200
O37         O  0.42348971  0.00569309  0.30035654    -0.87600
C38         C  0.07208507  0.06769684  0.38611418     1.12400
O39         O  0.45720003  0.47969296  0.33473321    -1.35400
O40         O  0.05579319  0.07206239  0.30634970    -0.89100
O41         O  0.39766950  0.45263736  0.29881090    -0.89700
O42         O  0.46042457  0.44932522  0.27107798    -0.78600
O43         O  0.49007627  0.04035333  0.30766655    -1.00700
C44         C  0.04540562  0.48096779  0.28194761     1.22500
O45         O  0.49037012  0.45034294  0.33658066    -1.35500
Mn46       Mn  0.48814875  0.48096071  0.36898073     1.82100
O47         O  0.02277279  0.48191316  0.27313078    -0.77600
O48         O  0.08243831  0.04868050  0.30961346    -0.87000
C49         C  0.04412153  0.48171099  0.39357055     1.13600
C50         C  0.07760260  0.06857015  0.29854892     1.08300
O51         O  0.45669608  0.44907185  0.39952248    -0.78600
O52         O  0.02003999  0.01175457  0.33956734    -1.32300
O53         O  0.43059703  0.42051950  0.36356831    -0.97800
C54         C  0.49417693  0.39626927  0.29263903     1.07000
Mn55       Mn  0.06291147  0.01521930  0.34216004     1.48600
O56         O  0.46856848  0.39096803  0.30183669    -0.87000
Mn57       Mn  0.41561974  0.43860402  0.33387938     1.49600
O58         O  0.42181531  0.00354348  0.36888997    -0.90900
C59         C  0.49083913  0.03580090  0.28047764     1.20200
C60         C  0.39910775  0.47695900  0.37649790     1.12300
Mn61       Mn  0.48981775  0.48097243  0.30288888     1.81000
O62         O  0.04908811  0.48218631  0.36635001    -0.96000
Mn63       Mn  0.45537510  0.02024237  0.33540715     1.49300
C64         C  0.40128637  0.47741737  0.28863257     1.08800
Mn65       Mn  0.03164813  0.44834584  0.33778003     1.49900
C66         C  0.49167904  0.39529728  0.38170318     1.11700
O67         O  0.43266681  0.42129122  0.30631830    -1.01800
O68         O  0.07786975  0.04755044  0.37720208    -0.91500
C69         C  0.43746679  0.42567123  0.27907451     1.23000
O70         O  0.04966833  0.48182150  0.30928489    -1.02200
O71         O  0.05177531  0.07137801  0.37403152    -0.89600
O72         O  0.01713742  0.41555450  0.37184675    -0.89200
O73         O  0.39550167  0.45208589  0.36685590    -0.89200
Mn74       Mn  0.02090270  0.05349063  0.33857821     1.47900
O75         O  0.02028205  0.48057839  0.40159342    -0.77700
C76         C  0.43404203  0.42522667  0.39095737     1.16000
O77         O  0.49112357  0.01254242  0.27256304    -0.76400
O78         O  0.48731579  0.01098976  0.40069546    -0.76100
Mn79       Mn  0.45153196  0.40717119  0.33565783     1.51100
O80         O  0.01834108  0.41549841  0.30355445    -0.88400
O81         O  0.48792071  0.03910246  0.36514142    -0.95900
O82         O  0.46674275  0.38990727  0.37029054    -0.91000
C83         C  0.48667932  0.03407531  0.39246103     1.13800
C84         C  0.97108462  0.09352325  0.42679909    -0.13800
C85         C  0.48612324  0.09754931  0.45695121     0.16600
C86         C  0.49401810  0.07631647  0.46647003     0.02900
C87         C  0.49302226  0.05505646  0.44553775    -0.12300
C88         C  0.48464898  0.05493280  0.41484609    -0.03300
C89         C  0.97116029  0.07313051  0.40595150     0.02100
C90         C  0.48730692  0.12103014  0.47743318     0.09000
N91         N  0.50421248  0.07693187  0.49692134     0.65300
H92         H  0.49992777  0.03940377  0.45303252     0.18200
N93         N  0.96146075  0.07392568  0.37560198     0.75800
H94         H  0.96348644  0.10867235  0.41947123     0.09800
C95         C  0.00145139  0.14896764  0.47034342     0.03500
C96         C  0.99240753  0.15255782  0.01602678    -0.05300
C97         C  0.47471163  0.15904343  0.01190097    -0.23600
C98         C  0.46313545  0.13533068  0.51652862     0.12700
C99         C  0.46587758  0.11315892  0.50057010    -0.12800
N100        N  0.01871893  0.12490712  0.00671227     0.64400
H101        H  0.00818799  0.16433340  0.03424467     0.12200
N102        N  0.43887774  0.12636898  0.53749246     0.61000
H103        H  0.45007001  0.08962275  0.50503550     0.08400
O104        O  0.97612925  0.09785597  0.36062682    -0.40400
O105        O  0.93417917  0.05719791  0.36909757    -0.39600
O106        O  0.48703511  0.05768704  0.51606034    -0.39600
O107        O  0.52903069  0.09853783  0.50557808    -0.37300
O108        O  0.41667785  0.12901749  0.52998158    -0.38200
O109        O  0.43709080  0.11104439  0.56069377    -0.34400
O110        O  0.03946625  0.13225802  0.98750187    -0.35800
O111        O  0.05027242  0.16427980  0.45532821    -0.40100
C112        C  0.51468648  0.35181308  0.43572735    -0.13800
C113        C  0.48731193  0.33227929  0.44976142     0.16600
C114        C  0.46205041  0.33493886  0.44304240     0.02900
C115        C  0.46408210  0.35586223  0.42128162    -0.12300
C116        C  0.49124898  0.37489743  0.40621069    -0.03300
C117        C  0.51696292  0.37310904  0.41426755     0.02100
C118        C  0.48509476  0.30787195  0.46958601     0.09000
N119        N  0.43432937  0.31692813  0.45861016     0.65300
H120        H  0.44426333  0.35724177  0.41630423     0.18200
N121        N  0.54530818  0.39178675  0.40006919     0.75800
H122        H  0.53421135  0.34993382  0.44081443     0.09800
C123        C  0.47261087  0.27835782  0.45843860     0.03500
C124        C  0.47199680  0.25586712  0.47690595    -0.05300
C125        C  0.46765348  0.25050096  0.00318833    -0.23600
C126        C  0.45899930  0.27084902  0.01435193     0.12700
C127        C  0.49680594  0.31431875  0.49928075    -0.12800
N128        N  0.46150927  0.27110908  0.42791680     0.64400
H129        H  0.46233508  0.23341445  0.46774841     0.12200
N130        N  0.97325583  0.28653599  0.05033160     0.61000
H131        H  0.00446863  0.33516023  0.50790491     0.08400
O132        O  0.55188854  0.38307523  0.37591143    -0.40400
O133        O  0.56554890  0.41387388  0.41447467    -0.39600
O134        O  0.40503680  0.30677818  0.96642339    -0.39600
O135        O  0.40259121  0.27782974  0.92892241    -0.37300
O136        O  0.99900097  0.30340423  0.06129330    -0.38200
O137        O  0.95045525  0.27916794  0.06663559    -0.34400
O138        O  0.47917796  0.27383924  0.40665569    -0.35800
O139        O  0.43362279  0.25627001  0.42331837    -0.40100
C140        C  0.98796062  0.11937743  0.16638011    -0.13800
C141        C  0.47612182  0.11532563  0.19852741     0.16600
C142        C  0.46555758  0.13344672  0.21133382     0.02900
C143        C  0.46789723  0.15780425  0.19498226    -0.12300
C144        C  0.48025332  0.16443775  0.16560889    -0.03300
C145        C  0.98940427  0.14331444  0.14949194     0.02100
C146        C  0.48044250  0.09423576  0.21791460     0.09000
N147        N  0.45258735  0.12751535  0.24113068     0.65300
H148        H  0.45979342  0.17144347  0.20531312     0.18200
N149        N  0.00174665  0.14877143  0.11943637     0.75800
H150        H  0.99687266  0.10622624  0.15658371     0.09800
C151        C  0.46834673  0.06357571  0.21086287     0.03500
C152        C  0.47292654  0.04492900  0.23091612    -0.05300
C153        C  0.48967027  0.05653114  0.25783886    -0.23600
C154        C  0.50339908  0.08768888  0.26351299     0.12700
C155        C  0.49864489  0.10600811  0.24365456    -0.12800
N156        N  0.45072369  0.05092598  0.18403521     0.64400
H157        H  0.46246258  0.02115637  0.22597822     0.12200
N158        N  0.52326189  0.10159258  0.28860467     0.61000
H159        H  0.50945819  0.12984761  0.24838233     0.08400
O160        O  0.98570891  0.13314002  0.09745958    -0.40400
O161        O  0.02967917  0.16493975  0.11585235    -0.39600
O162        O  0.46679513  0.14510955  0.26277772    -0.39600
O163        O  0.42491582  0.10935048  0.24408195    -0.37300
O164        O  0.55073638  0.11879228  0.28317916    -0.38200
O165        O  0.51270820  0.10475288  0.31329708    -0.34400
O166        O  0.46211833  0.04535452  0.16128609    -0.35800
O167        O  0.42272569  0.04006689  0.18521336    -0.40100
C168        C  0.01790787  0.35200018  0.23948031    -0.13800
C169        C  0.49435065  0.33806794  0.22157451     0.16600
C170        C  0.46952666  0.34220159  0.22561012     0.02900
C171        C  0.47035352  0.36193130  0.24816095    -0.12300
C172        C  0.49545165  0.37761292  0.26729320    -0.03300
C173        C  0.01945003  0.37234201  0.26163888     0.02100
C174        C  0.49258357  0.31336017  0.20248172     0.09000
N175        N  0.44252317  0.32496380  0.20861009     0.65300
H176        H  0.45067606  0.36414595  0.25138122     0.18200
N177        N  0.04606894  0.38760367  0.27960661     0.75800
H178        H  0.03716190  0.34925769  0.23591391     0.09800
C179        C  0.98503686  0.30804618  0.17226389     0.03500
C180        C  0.98361781  0.28419220  0.15531844    -0.05300
C181        C  0.48853012  0.26419314  0.16899483    -0.23600
C182        C  0.49347886  0.26643525  0.20100134     0.12700
C183        C  0.49503438  0.29054760  0.21721517    -0.12800
N184        N  0.98312972  0.33144368  0.15666298     0.64400
H185        H  0.98022288  0.28380248  0.13096448     0.12200
N186        N  0.49760563  0.24487727  0.21764259     0.61000
H187        H  0.49838677  0.29155431  0.24156892     0.08400
O188        O  0.07007547  0.40714580  0.26728927    -0.40400
O189        O  0.04715139  0.37682866  0.30511918    -0.39600
O190        O  0.42486316  0.29800264  0.21591331    -0.39600
O191        O  0.43359003  0.33810424  0.19076894    -0.37300
O192        O  0.52347913  0.24813458  0.21975872    -0.38200
O193        O  0.47699781  0.22637032  0.23484303    -0.34400
O194        O  0.00609565  0.35715545  0.15463524    -0.35800
O195        O  0.96054233  0.32511702  0.14035288    -0.40100
C196        C  0.31077832  0.46259152  0.49125974    -0.13800
C197        C  0.31869903  0.48124164  0.46557073     0.16600
C198        C  0.30402322  0.49759839  0.45985632     0.02900
C199        C  0.28249522  0.45443282  0.01695833    -0.12300
C200        C  0.26452043  0.46528927  0.00470668    -0.03300
C201        C  0.28735427  0.45868048  0.51047407     0.02100
C202        C  0.33991692  0.48057722  0.44341651     0.09000
N203        N  0.32575251  0.44708608  0.01497324     0.65300
H204        H  0.27744380  0.44397679  0.03919252     0.18200
N205        N  0.29194047  0.95903508  0.54778165     0.75800
H206        H  0.33345596  0.96535037  0.50843383     0.09800
C207        C  0.36841092  0.50566348  0.43816610     0.03500
C208        C  0.38747968  0.50372036  0.41677806    -0.05300
C209        C  0.37865957  0.47717126  0.40016098    -0.23600
C210        C  0.35001186  0.45207361  0.40560586     0.12700
C211        C  0.33105637  0.45398495  0.42714797    -0.12800
N212        N  0.37863194  0.53294927  0.45488271     0.64400
H213        H  0.40947924  0.52301905  0.41356540     0.12200
N214        N  0.33931921  0.42485041  0.38874209     0.61000
H215        H  0.30905417  0.43468544  0.43092052     0.08400
O216        O  0.31163154  0.97212727  0.56808900    -0.40400
O217        O  0.27174578  0.93208092  0.55172308    -0.39600
O218        O  0.35278938  0.46572679  0.02091612    -0.39600
O219        O  0.32063560  0.54367954  0.43592560    -0.37300
O220        O  0.32507080  0.91808885  0.37469467    -0.38200
O221        O  0.34892294  0.90561098  0.40728290    -0.34400
O222        O  0.38550051  0.53394697  0.48266151    -0.35800
O223        O  0.38630949  0.55710630  0.44074637    -0.40100
C224        C  0.14628208  0.46121440  0.45679938    -0.13800
C225        C  0.12991865  0.47283283  0.47112463     0.16600
C226        C  0.13905847  0.98935090  0.50575627     0.02900
C227        C  0.16140773  0.99021930  0.01648718    -0.12300
C228        C  0.16840461  0.46238785  0.00577686    -0.03300
C229        C  0.16791634  0.45781238  0.47269506     0.02100
C230        C  0.10843882  0.47765649  0.45275344     0.09000
N231        N  0.12391162  0.00259492  0.52070741     0.65300
H232        H  0.16913455  0.00212518  0.03786118     0.18200
N233        N  0.18440867  0.44664542  0.45657891     0.75800
H234        H  0.14238539  0.45487214  0.43303981     0.09800
C235        C  0.11707203  0.49295793  0.42457446     0.03500
C236        C  0.09578452  0.49447980  0.40622202    -0.05300
C237        C  0.06584598  0.48173593  0.41554501    -0.23600
C238        C  0.05736026  0.46759778  0.44427750     0.12700
C239        C  0.07852548  0.46520155  0.46234548    -0.12800
N240        N  0.14743126  0.50718125  0.41423511     0.64400
H241        H  0.10282938  0.50584363  0.38440156     0.12200
N242        N  0.02715601  0.45433014  0.45479479     0.61000
H243        H  0.07129529  0.45278352  0.48354130     0.08400
O244        O  0.20513307  0.46374288  0.43865522    -0.40400
O245        O  0.17487592  0.41879093  0.45604415    -0.39600
O246        O  0.10749444  0.99949372  0.03192647    -0.39600
O247        O  0.13432739  0.03051702  0.51862470    -0.37300
O248        O  0.00971147  0.42647965  0.45174760    -0.38200
O249        O  0.01972612  0.46918553  0.47194902    -0.34400
O250        O  0.15376090  0.49799927  0.39022694    -0.35800
O251        O  0.16656602  0.53197607  0.42565457    -0.40100
C252        C  0.34882944  0.49447629  0.24285032    -0.13800
C253        C  0.33565117  0.46982086  0.22304680     0.16600
C254        C  0.34587825  0.44910507  0.22315210     0.02900
C255        C  0.36780193  0.45223729  0.24412458    -0.12300
C256        C  0.38058596  0.47651899  0.26457582    -0.03300
C257        C  0.37146187  0.49827171  0.26318135     0.02100
C258        C  0.31001811  0.46514173  0.20379675     0.09000
N259        N  0.33400222  0.42464673  0.20217888     0.65300
H260        H  0.37473715  0.43566309  0.24445725     0.18200
N261        N  0.38376129  0.52350831  0.28331262     0.75800
H262        H  0.34126035  0.51055653  0.24277473     0.09800
C263        C  0.28174494  0.45551849  0.21684776     0.03500
C264        C  0.25800912  0.45236734  0.19866515    -0.05300
C265        C  0.26178281  0.45891251  0.16722510    -0.23600
C266        C  0.29038638  0.46859699  0.15419168     0.12700
C267        C  0.31404876  0.47139467  0.17250050    -0.12800
N268        N  0.27679841  0.44877822  0.24866380     0.64400
H269        H  0.23659978  0.44482715  0.20937308     0.12200
N270        N  0.29333797  0.96508972  0.12173068     0.61000
H271        H  0.33266721  0.96854957  0.16238641     0.08400
O272        O  0.36894652  0.52350597  0.30620249    -0.40400
O273        O  0.40733447  0.54729457  0.27589484    -0.39600
O274        O  0.34503945  0.42860516  0.17576804    -0.39600
O275        O  0.31596391  0.39842161  0.21135743    -0.37300
O276        O  0.30822048  0.98824513  0.10561178    -0.38200
O277        O  0.28515672  0.93957173  0.11047526    -0.34400
O278        O  0.27705353  0.46790653  0.26683330    -0.35800
O279        O  0.26773487  0.42235175  0.25779541    -0.40100
C280        C  0.12929483  0.43920764  0.20795231    -0.13800
C281        C  0.12148706  0.46072889  0.19946130     0.16600
C282        C  0.13443629  0.47815780  0.17302305     0.02900
C283        C  0.15471596  0.47369122  0.15566113    -0.12300
C284        C  0.16351084  0.45314174  0.16498077    -0.03300
C285        C  0.15028145  0.43548051  0.19112326     0.02100
C286        C  0.10157021  0.46600472  0.21982915     0.09000
N287        N  0.12949872  0.50232274  0.16512202     0.65300
H288        H  0.16519407  0.48779737  0.13605089     0.18200
N289        N  0.15760501  0.41336389  0.20061365     0.75800
H290        H  0.11947562  0.42565027  0.22801893     0.09800
C291        C  0.07419579  0.46305709  0.20979096     0.03500
C292        C  0.05674640  0.46911011  0.22997971    -0.05300
C293        C  0.06552598  0.47706394  0.26050286    -0.23600
C294        C  0.09272060  0.47932824  0.27053587     0.12700
C295        C  0.11047558  0.47419266  0.25014692    -0.12800
N296        N  0.06557396  0.95962201  0.18041344     0.64400
H297        H  0.03733006  0.96997297  0.22460156     0.12200
N298        N  0.10249140  0.48627054  0.30151240     0.61000
H299        H  0.13137708  0.47638406  0.25816934     0.08400
O300        O  0.14316036  0.38715788  0.18981962    -0.40400
O301        O  0.17436430  0.41836008  0.22345681    -0.39600
O302        O  0.13880417  0.52462820  0.18271979    -0.39600
O303        O  0.12152954  0.50419572  0.13836505    -0.37300
O304        O  0.11641024  0.51321092  0.31036220    -0.38200
O305        O  0.09834347  0.46552807  0.31971803    -0.34400
O306        O  0.05924528  0.93388633  0.17116998    -0.35800
O307        O  0.05683184  0.97464717  0.16520693    -0.40100
C308        C  0.34794659  0.33400077  0.50155997    -0.13800
C309        C  0.34092166  0.34488725  0.47527032     0.16600
C310        C  0.31048969  0.33287378  0.46725946     0.02900
C311        C  0.28798825  0.30950753  0.48443703    -0.12300
C312        C  0.29980269  0.28606566  0.01038707    -0.03300
C313        C  0.33081280  0.29837189  0.01492537     0.02100
C314        C  0.36535533  0.36592571  0.45444573     0.09000
N315        N  0.30200603  0.34459744  0.44202065     0.65300
H316        H  0.26491195  0.30042307  0.47765125     0.18200
N317        N  0.34192550  0.28506134  0.03598104     0.75800
H318        H  0.37104633  0.34237131  0.50767825     0.09800
C319        C  0.38934903  0.39375977  0.46428473     0.03500
C320        C  0.41191107  0.41246037  0.44360993    -0.05300
C321        C  0.41114850  0.40393987  0.41295944    -0.23600
C322        C  0.38747701  0.37557469  0.40351956     0.12700
C323        C  0.36511934  0.35704254  0.42417202    -0.12800
N324        N  0.39069052  0.40378824  0.49492768     0.64400
H325        H  0.42963128  0.43393029  0.45143596     0.12200
N326        N  0.38572143  0.36496654  0.37303805     0.61000
H327        H  0.34760118  0.33539930  0.41653044     0.08400
O328        O  0.34946551  0.29572055  0.06251837    -0.40400
O329        O  0.34855406  0.26592776  0.02664239    -0.39600
O330        O  0.29168602  0.32903063  0.41815885    -0.39600
O331        O  0.29865447  0.36700947  0.44606774    -0.37300
O332        O  0.39876514  0.35053920  0.36630838    -0.38200
O333        O  0.36705120  0.36528683  0.35463489    -0.34400
O334        O  0.41027162  0.39112082  0.01234589    -0.35800
O335        O  0.37812804  0.40666761  0.00836089    -0.40100
C336        C  0.15454766  0.15279600  0.50301385    -0.13800
C337        C  0.15562757  0.15575172  0.47121912     0.16600
C338        C  0.17826536  0.18225395  0.45781812     0.02900
C339        C  0.19973425  0.20516793  0.47614508    -0.12300
C340        C  0.20660991  0.18933793  0.00848669    -0.03300
C341        C  0.18869937  0.15948563  0.01901551     0.02100
C342        C  0.13233858  0.13169320  0.45208292     0.09000
N343        N  0.18011845  0.18590384  0.42542900     0.65300
H344        H  0.21698297  0.22501711  0.46503365     0.18200
N345        N  0.19262344  0.15072323  0.04880168     0.75800
H346        H  0.13686823  0.13275114  0.51345513     0.09800
C347        C  0.13137984  0.10415752  0.44778549     0.03500
C348        C  0.11080140  0.08300478  0.42723237    -0.05300
C349        C  0.09073914  0.08876188  0.41078306    -0.23600
C350        C  0.09076043  0.11592453  0.41663486     0.12700
C351        C  0.11162252  0.13705480  0.43689685    -0.12800
N352        N  0.15195898  0.09787847  0.46331695     0.64400
H353        H  0.11112764  0.06237883  0.42360673     0.12200
N354        N  0.07048436  0.12302771  0.40158857     0.61000
H355        H  0.11194315  0.15801411  0.44048034     0.08400
O356        O  0.20933254  0.13957553  0.05242033    -0.40400
O357        O  0.17534309  0.14893376  0.07007823    -0.39600
O358        O  0.17210364  0.20285158  0.41292906    -0.39600
O359        O  0.19335904  0.17543093  0.40987338    -0.37300
O360        O  0.04481740  0.11393640  0.41273520    -0.38200
O361        O  0.07994634  0.14255700  0.38074365    -0.34400
O362        O  0.16791132  0.07816005  0.95597659    -0.35800
O363        O  0.19149086  0.11486629  0.92366473    -0.40100
C364        C  0.34346663  0.30157117  0.21083259    -0.13800
C365        C  0.35437092  0.33071170  0.19935651     0.16600
C366        C  0.34423740  0.33434513  0.17060467     0.02900
C367        C  0.32242562  0.30919482  0.15487115    -0.12300
C368        C  0.31017151  0.28030001  0.16732547    -0.03300
C369        C  0.32130834  0.27651102  0.19534299     0.02100
C370        C  0.37493548  0.35668341  0.21865611     0.09000
N371        N  0.35413734  0.36340142  0.15795045     0.65300
H372        H  0.31406164  0.31251697  0.13338022     0.18200
N373        N  0.31052013  0.24737974  0.20826485     0.75800
H374        H  0.35183040  0.29828486  0.23232348     0.09800
C375        C  0.36723656  0.35886145  0.24903871     0.03500
C376        C  0.38785063  0.38172985  0.26784197    -0.05300
C377        C  0.41626680  0.40323529  0.25706751    -0.23600
C378        C  0.42366546  0.40181762  0.22634137     0.12700
C379        C  0.40316085  0.37839422  0.20758070    -0.12800
N380        N  0.33843816  0.33803263  0.26120796     0.64400
H381        H  0.38139857  0.38264060  0.29111116     0.12200
N382        N  0.45213758  0.42327757  0.21408422     0.61000
H383        H  0.40975472  0.37669090  0.18464554     0.08400
O384        O  0.29266114  0.23906545  0.23055219    -0.40400
O385        O  0.32226501  0.23197817  0.20053132    -0.39600
O386        O  0.37667718  0.37483703  0.14060356    -0.39600
O387        O  0.33590653  0.37293457  0.15660118    -0.37300
O388        O  0.47303394  0.41727809  0.21314281    -0.38200
O389        O  0.45471044  0.44560411  0.19952606    -0.34400
O390        O  0.33632335  0.31996250  0.28184996    -0.35800
O391        O  0.31645499  0.34172670  0.25584897    -0.40100
C392        C  0.11881970  0.10284886  0.22508966    -0.13800
C393        C  0.14538645  0.12751823  0.23604985     0.16600
C394        C  0.14864261  0.13332609  0.26781701     0.02900
C395        C  0.12600672  0.11382607  0.28776215    -0.12300
C396        C  0.09959990  0.08943703  0.27661914    -0.03300
C397        C  0.09589755  0.08404418  0.24511722     0.02100
C398        C  0.16891468  0.14717990  0.21386218     0.09000
N399        N  0.17399416  0.15955299  0.28006307     0.65300
H400        H  0.12878377  0.11804001  0.31212442     0.18200
N401        N  0.06908311  0.05936491  0.23327627     0.75800
H402        H  0.11588659  0.09813801  0.20082524     0.09800
C403        C  0.19914162  0.15454064  0.21704120     0.03500
C404        C  0.22083275  0.17554895  0.19724441    -0.05300
C405        C  0.21289115  0.18821969  0.17322760    -0.23600
C406        C  0.18255805  0.17963444  0.16901165     0.12700
C407        C  0.16093165  0.15945411  0.18941399    -0.12800
N408        N  0.20799965  0.14004100  0.23928638     0.64400
H409        H  0.24395792  0.18145280  0.20012217     0.12200
N410        N  0.17358959  0.19264010  0.14540578     0.61000
H411        H  0.13793881  0.15404823  0.18668158     0.08100
O412        O  0.06853061  0.03535449  0.22624227    -0.40400
O413        O  0.04722897  0.06279551  0.22641953    -0.39600
O414        O  0.17880688  0.18521171  0.27230804    -0.39600
O415        O  0.18812918  0.15718089  0.30241883    -0.37300
O416        O  0.15863513  0.17673520  0.12306179    -0.38200
O417        O  0.17556941  0.21780717  0.14972707    -0.34400
O418        O  0.19499913  0.11175209  0.24009418    -0.35800
O419        O  0.23174703  0.15518849  0.25448594    -0.40100
C420        C  0.22831675  0.22520310  0.65425291     0.80800
N421        N  0.22575178  0.22568779  0.62332353    -0.77500
C422        C  0.24893523  0.24704918  0.60660868     0.83200
N423        N  0.27419035  0.26779149  0.62093273    -0.77400
C424        C  0.27695605  0.26729022  0.65160413     0.83300
N425        N  0.25398114  0.24588975  0.66811006    -0.79200
C426        C  0.22383613  0.22707256  0.52625791     0.80800
N427        N  0.22441775  0.22605213  0.55727089    -0.77500
C428        C  0.24765155  0.24811377  0.57316162     0.83200
N429        N  0.27058895  0.27121133  0.55793851    -0.77400
C430        C  0.27028641  0.27268416  0.52707518     0.83300
N431        N  0.24680959  0.25063760  0.51148228    -0.79200
C432        C  0.24432310  0.47410875  0.64950533     0.80800
N433        N  0.24401287  0.47102819  0.61862322    -0.77500
C434        C  0.22052353  0.46808839  0.60175829     0.83200
N435        N  0.19706888  0.46813267  0.61591802    -0.77400
C436        C  0.19710038  0.47138702  0.64663749     0.83300
N437        N  0.22083582  0.47457171  0.66316830    -0.79200
C438        C  0.24552627  0.46964421  0.52186418     0.80800
N439        N  0.22188918  0.46782996  0.50638582    -0.77500
C440        C  0.19758939  0.46495158  0.52125283     0.83200
N441        N  0.19737253  0.46457513  0.55220470    -0.77400
C442        C  0.22084684  0.46647848  0.56819580     0.83300
N443        N  0.24506322  0.46903247  0.55295028    -0.79200
C444        C  0.47399548  0.23329131  0.65205796     0.80800
N445        N  0.47626254  0.23456796  0.62109319    -0.77500
C446        C  0.47690380  0.21215265  0.60532204     0.83200
N447        N  0.47569073  0.18862891  0.62065398    -0.77400
C448        C  0.47386228  0.18722572  0.65153773     0.83300
N449        N  0.47288057  0.20960830  0.66702596    -0.79200
C450        C  0.48299851  0.23723382  0.52482589     0.80800
N451        N  0.48315597  0.21402913  0.51015160    -0.77500
C452        C  0.48092618  0.19028169  0.52592220     0.83200
N453        N  0.47878469  0.18987368  0.55676244    -0.77400
C454        C  0.47890077  0.21300276  0.57183442     0.83300
N455        N  0.48093495  0.23663260  0.55581176    -0.79200
O456        O  0.42568734  0.00984283  0.80510055    -0.87600
C457        C  0.07391309  0.06469965  0.88403318     1.12400
O458        O  0.45701390  0.48134032  0.83857826    -1.35400
O459        O  0.05648144  0.07431780  0.80796175    -0.89100
O460        O  0.39871334  0.45941064  0.80176768    -0.89700
O461        O  0.45956187  0.45253958  0.77377349    -0.78600
O462        O  0.49232899  0.04275473  0.81181719    -1.00700
C463        C  0.04023588  0.47597632  0.78095123     1.22500
O464        O  0.48659811  0.44834957  0.83916797    -1.35500
Mn465      Mn  0.48589624  0.47877760  0.87291836     1.82100
O466        O  0.01869769  0.47904340  0.77252992    -0.77600
O467        O  0.07912503  0.04721447  0.80273733    -0.87000
C468        C  0.03982040  0.47717620  0.89269722     1.13600
C469        C  0.07603403  0.06954924  0.79582029     1.08300
O470        O  0.45287332  0.44679614  0.90207202    -0.78600
O471        O  0.01889900  0.01172539  0.83711496    -1.32300
O472        O  0.42657165  0.42106040  0.86483149    -0.97800
C473        C  0.48656260  0.39301352  0.79361540     1.07000
Mn474      Mn  0.06087792  0.01358710  0.83639312     1.48600
O475        O  0.46169619  0.38978579  0.80260923    -0.87000
Mn476      Mn  0.41419512  0.44210112  0.83607518     1.49600
O477        O  0.42443540  0.00619770  0.87310831    -0.90900
C478        C  0.49218696  0.03827579  0.78439693     1.20200
C479        C  0.40084059  0.48092467  0.88178811     1.12300
Mn480      Mn  0.48933463  0.48154483  0.80689594     1.81000
O481        O  0.04339049  0.47649250  0.86531938    -0.96000
Mn482      Mn  0.45776485  0.02245420  0.83966621     1.49300
C483        C  0.40401768  0.48507084  0.79251917     1.08800
Mn484      Mn  0.02332558  0.44272774  0.83697659     1.49900
C485        C  0.48244389  0.38974308  0.88240226     1.11700
O486        O  0.42965058  0.42393321  0.80758381    -1.01800
O487        O  0.07906112  0.04564145  0.87106074    -0.91500
C488        C  0.43549325  0.42949667  0.78060699     1.23000
O489        O  0.04425017  0.47603863  0.80830014    -1.02200
O490        O  0.05294531  0.06931732  0.87552515    -0.89600
O491        O  0.00594902  0.41008711  0.87131457    -0.89200
O492        O  0.39588703  0.45627961  0.87006110    -0.89200
Mn493      Mn  0.02179386  0.05427574  0.83952206     1.47900
O494        O  0.01725379  0.47837331  0.90139330    -0.77700
C495        C  0.42972538  0.42411529  0.89239427     1.16000
O496        O  0.49212858  0.01500238  0.77575207    -0.76400
O497        O  0.48774553  0.00913737  0.90390977    -0.76100
Mn498      Mn  0.44601408  0.40674692  0.83652200     1.51100
O499        O  0.00697110  0.40945924  0.80285396    -0.88400
O500        O  0.49034351  0.03874593  0.86929280    -0.95900
O501        O  0.45842462  0.38641205  0.87051973    -0.91000
C502        C  0.48878859  0.03313518  0.89643425     1.13800
C503        C  0.98721635  0.10231141  0.92606678    -0.13800
C504        C  0.48572812  0.09380348  0.96240624     0.16600
C505        C  0.47984761  0.06515600  0.97161371     0.02900
C506        C  0.48083611  0.04542089  0.95003830    -0.12300
C507        C  0.48752477  0.05396193  0.91919533    -0.03300
C508        C  0.98871537  0.08251155  0.90549665     0.02100
C509        C  0.48148618  0.11416203  0.98273248     0.09000
N510        N  0.47234830  0.05575256  0.00257629     0.65300
H511        H  0.47625117  0.02338880  0.95740256     0.18200
N512        N  0.99536440  0.09184222  0.87447082     0.75800
H513        H  0.99237742  0.12435182  0.91823417     0.09800
C514        C  0.99460372  0.13021831  0.99992712     0.03500
C515        C  0.99871936  0.17093199  0.48628006    -0.05300
C516        C  0.48251923  0.16596180  0.50963599    -0.23600
C517        C  0.45048234  0.13583068  0.99604500     0.12700
C518        C  0.45391777  0.11340101  0.98185195    -0.12800
N519        N  0.02418729  0.15797202  0.44759173     0.64400
H520        H  0.01397465  0.19427768  0.48119324     0.12200
N521        N  0.42230732  0.13475306  0.99419670     0.61000
H522        H  0.43545316  0.09608611  0.96914247     0.08400
O523        O  0.02128287  0.11254458  0.86746302    -0.40400
O524        O  0.97399795  0.08458943  0.85603907    -0.39600
O525        O  0.44523057  0.04125538  0.01059434    -0.39600
O526        O  0.49271987  0.06463339  0.02248696    -0.37300
O527        O  0.41631068  0.14543209  0.97109942    -0.38200
O528        O  0.40169994  0.11854092  0.01263596    -0.34400
O529        O  0.01975212  0.16487838  0.42125294    -0.35800
O530        O  0.02235611  0.11863130  0.03363962    -0.40100
C531        C  0.50097406  0.34275001  0.93624023    -0.13800
C532        C  0.47229757  0.32058306  0.94541571     0.16600
C533        C  0.44731866  0.32269606  0.93604882     0.02900
C534        C  0.45121056  0.34594563  0.91648998    -0.12300
C535        C  0.47987638  0.36757236  0.90595413    -0.03300
C536        C  0.50504743  0.36615396  0.91686287     0.02100
C537        C  0.46914675  0.29542698  0.96461079     0.09000
N538        N  0.41774391  0.30074206  0.94526690     0.65300
H539        H  0.43154076  0.34657498  0.90905133     0.18200
N540        N  0.53492706  0.38787126  0.90825792     0.75800
H541        H  0.52035340  0.34170052  0.94394537     0.09800
C542        C  0.47729930  0.27492270  0.95331114     0.03500
C543        C  0.47633770  0.25270983  0.97243622    -0.05300
C544        C  0.48382026  0.26209739  0.50665054    -0.23600
C545        C  0.49625169  0.29176082  0.51786903     0.12700
C546        C  0.45972177  0.29297273  0.99500315    -0.12800
N547        N  0.48674706  0.27646162  0.92239456     0.64400
H548        H  0.48316379  0.23758580  0.96319572     0.12200
N549        N  0.00588561  0.29687572  0.54727681     0.61000
H550        H  0.97191230  0.32358413  0.00976104     0.08400
O551        O  0.54673319  0.38294298  0.88543778    -0.40400
O552        O  0.55133221  0.40816993  0.92692071    -0.39600
O553        O  0.43097547  0.32418291  0.48518656    -0.39600
O554        O  0.41173910  0.29771159  0.44398710    -0.37300
O555        O  0.03274085  0.30343821  0.55118724    -0.38200
O556        O  0.99219879  0.30157064  0.56846654    -0.34400
O557        O  0.51429782  0.28818631  0.91646338    -0.35800
O558        O  0.46769812  0.26114915  0.90222329    -0.40100
C559        C  0.97424642  0.11542227  0.67117109    -0.13800
C560        C  0.47038781  0.11394637  0.70302552     0.16600
C561        C  0.45983783  0.13218587  0.71543877     0.02900
C562        C  0.46076402  0.15545153  0.69812758    -0.12300
C563        C  0.47251073  0.16144375  0.66838868    -0.03300
C564        C  0.97568673  0.13921546  0.65417362     0.02100
C565        C  0.47566904  0.09375085  0.72288993     0.09000
N566        N  0.44871860  0.12777990  0.74598486     0.65300
H567        H  0.45250805  0.16883119  0.70811153     0.18200
N568        N  0.99176221  0.14701273  0.62597271     0.75800
H569        H  0.98496724  0.10355250  0.66247598     0.09800
C570        C  0.46352930  0.06290977  0.71695218     0.03500
C571        C  0.47044866  0.04542715  0.73635220    -0.05300
C572        C  0.48879365  0.05817520  0.76219193    -0.23600
C573        C  0.50106529  0.08922394  0.76756945     0.12700
C574        C  0.49487965  0.10657661  0.74772015    -0.12800
N575        N  0.44293949  0.04879090  0.69240187     0.64400
H576        H  0.46025546  0.02166480  0.73209583     0.12200
N577        N  0.52008673  0.10405723  0.79289330     0.61000
H578        H  0.50517817  0.13036037  0.75184595     0.08400
O579        O  0.98172649  0.12902541  0.60378484    -0.40400
O580        O  0.01849863  0.16837681  0.62533378    -0.39600
O581        O  0.46364160  0.14692292  0.76625434    -0.39600
O582        O  0.42195984  0.10795499  0.75134016    -0.37300
O583        O  0.54793598  0.11589720  0.78906924    -0.38200
O584        O  0.51084013  0.11533414  0.81256632    -0.34400
O585        O  0.45042390  0.03888646  0.66977208    -0.35800
O586        O  0.41603520  0.04237482  0.69536443    -0.40100
C587        C  0.00099089  0.34663000  0.73433791    -0.13800
C588        C  0.48029043  0.33163104  0.72252746     0.16600
C589        C  0.45503967  0.33326787  0.73182293     0.02900
C590        C  0.45789515  0.35380494  0.75432848    -0.12300
C591        C  0.48572602  0.37317975  0.76823087    -0.03300
C592        C  0.00470013  0.36778924  0.75664469     0.02100
C593        C  0.47723402  0.30668678  0.70297136     0.09000
N594        N  0.42623755  0.31409817  0.71865763     0.65300
H595        H  0.43798051  0.35424852  0.76105022     0.18200
N596        N  0.03389188  0.38592397  0.76943726     0.75800
H597        H  0.02001600  0.34456835  0.72786015     0.09800
C598        C  0.98608877  0.30749266  0.67485346     0.03500
C599        C  0.98419170  0.28336131  0.65813304    -0.05300
C600        C  0.47390220  0.25805061  0.66942556    -0.23600
C601        C  0.45869005  0.25300706  0.69755783     0.12700
C602        C  0.46035718  0.27719489  0.71386464    -0.12800
N603        N  0.00517427  0.33738774  0.66409230     0.64400
H604        H  0.99751016  0.28797386  0.63779562     0.12200
N605        N  0.44129923  0.22349184  0.70994324     0.61000
H606        H  0.44895989  0.27299200  0.73547074     0.08400
O607        O  0.05530804  0.40298490  0.75219538    -0.40400
O608        O  0.03956783  0.37943315  0.79543614    -0.39600
O609        O  0.40589500  0.29362134  0.73458835    -0.39600
O610        O  0.41951559  0.32128301  0.69358440    -0.37300
O611        O  0.45083783  0.21611122  0.73298903    -0.38200
O612        O  0.41431742  0.20733655  0.70191660    -0.34400
O613        O  0.03324017  0.34865866  0.66515510    -0.35800
O614        O  0.99414226  0.35032963  0.64885484    -0.40100
C615        C  0.29615225  0.48135445  0.95949424    -0.13800
C616        C  0.31412833  0.47061071  0.97169305     0.16600
C617        C  0.30729979  0.45716350  0.00088909     0.02900
C618        C  0.28115215  0.49433445  0.47940044    -0.12300
C619        C  0.27207829  0.47448303  0.50433288    -0.03300
C620        C  0.27178824  0.47908156  0.97561443     0.02100
C621        C  0.33920861  0.47342669  0.95261423     0.09000
N622        N  0.31049842  0.51582763  0.43316451     0.65300
H623        H  0.26960787  0.50653265  0.47435155     0.18200
N624        N  0.26463200  0.00524211  0.96079993     0.75800
H625        H  0.30624370  0.99800730  0.93468940     0.09800
C626        C  0.34061961  0.44815347  0.94264503     0.03500
C627        C  0.36176577  0.45147561  0.92069985    -0.05300
C628        C  0.38112224  0.47954345  0.90731905    -0.23600
C629        C  0.38051779  0.50509003  0.91837714     0.12700
C630        C  0.35996680  0.50179262  0.94107194    -0.12800
N631        N  0.31956634  0.41865136  0.95297146     0.64400
H632        H  0.36200017  0.43163328  0.91318820     0.12200
N633        N  0.39918300  0.53430434  0.90576987     0.61000
H634        H  0.35910550  0.52132988  0.94853482     0.08400
O635        O  0.24934208  0.99503116  0.93676305    -0.40400
O636        O  0.27258636  0.03165414  0.96916331    -0.39600
O637        O  0.30044112  0.50346868  0.40766375    -0.39600
O638        O  0.31393406  0.42098901  0.02610711    -0.37300
O639        O  0.42437070  0.05581842  0.92475800    -0.38200
O640        O  0.40023870  0.04375850  0.88164884    -0.34400
O641        O  0.29247199  0.40675423  0.94496322    -0.35800
O642        O  0.32897714  0.40266271  0.96503452    -0.40100
C643        C  0.11702762  0.44645514  0.99136764    -0.13800
C644        C  0.12706005  0.47075602  0.97110971     0.16600
C645        C  0.13940691  0.99253194  0.99987456     0.02900
C646        C  0.16177444  0.98749295  0.52152251    -0.12300
C647        C  0.17294258  0.46525791  0.50402589    -0.03300
C648        C  0.13743833  0.44234361  0.00896344     0.02100
C649        C  0.10517140  0.47328023  0.95114234     0.09000
N650        N  0.12763315  0.01035690  0.01177021     0.65300
H651        H  0.16695491  0.99598391  0.54457825     0.18200
N652        N  0.12650407  0.41700245  0.02880388     0.75800
H653        H  0.09330291  0.43028420  0.99305485     0.09800
C654        C  0.10771915  0.47353804  0.91909033     0.03500
C655        C  0.08671149  0.47587529  0.90095131    -0.05300
C656        C  0.06222747  0.47687925  0.91383298    -0.23600
C657        C  0.05983997  0.47684748  0.94591110     0.12700
C658        C  0.08126322  0.47507686  0.96423877    -0.12800
N659        N  0.13018613  0.46930371  0.90447949     0.64400
H660        H  0.08899971  0.47560304  0.87654560     0.12200
N661        N  0.03577473  0.47830400  0.96028867     0.61000
H662        H  0.07919263  0.47500762  0.98872407     0.08400
O663        O  0.12361473  0.39266930  0.01892662    -0.40400
O664        O  0.11477353  0.41729437  0.05394902    -0.39600
O665        O  0.10498858  0.98806816  0.54124210    -0.39600
O666        O  0.14142239  0.03827450  0.00700990    -0.37300
O667        O  0.01322777  0.45451480  0.96958648    -0.38200
O668        O  0.03917389  0.50342720  0.96805300    -0.34400
O669        O  0.13073801  0.44536618  0.90900836    -0.35800
O670        O  0.14542216  0.48641594  0.88291674    -0.40100
C671        C  0.35585674  0.50744134  0.74569029    -0.13800
C672        C  0.34014762  0.48219414  0.72692481     0.16600
C673        C  0.34790027  0.45956876  0.72755887     0.02900
C674        C  0.36961099  0.46146653  0.74815492    -0.12300
C675        C  0.38457195  0.48614552  0.76794392    -0.03300
C676        C  0.37829819  0.50991111  0.76564580     0.02100
C677        C  0.31567328  0.47986063  0.70702632     0.09000
N678        N  0.33364058  0.43428670  0.70767840     0.65300
H679        H  0.37437737  0.44333210  0.74898278     0.18200
N680        N  0.39382548  0.53633873  0.78395116     0.75800
H681        H  0.35074018  0.52534870  0.74475018     0.09800
C682        C  0.28982245  0.47821736  0.71967705     0.03500
C683        C  0.26732984  0.47681324  0.70062033    -0.05300
C684        C  0.26963431  0.47660077  0.66859452    -0.23600
C685        C  0.29573683  0.47817719  0.65599882     0.12700
C686        C  0.31835945  0.47985612  0.67521679    -0.12800
N687        N  0.28552662  0.47666136  0.75196429     0.64400
H688        H  0.24765618  0.47530357  0.71120825     0.12200
N689        N  0.31498286  0.02177319  0.63669950     0.61000
H690        H  0.35152884  0.01422698  0.67338686     0.08400
O691        O  0.37969467  0.54233608  0.80355810    -0.40400
O692        O  0.42035518  0.55588768  0.77722789    -0.39600
O693        O  0.34806843  0.43228758  0.68547808    -0.39600
O694        O  0.30860320  0.41211546  0.71480304    -0.37300
O695        O  0.31399823  0.04564805  0.63970947    -0.38200
O696        O  0.32924045  0.01926420  0.61461579    -0.34400
O697        O  0.28898803  0.49940971  0.76634554    -0.35800
O698        O  0.27386881  0.45153691  0.76521240    -0.40100
C699        C  0.11914749  0.45282834  0.67314834    -0.13800
C700        C  0.12622449  0.47503901  0.69544446     0.16600
C701        C  0.15662415  0.49711387  0.69976819     0.02900
C702        C  0.17920323  0.49544091  0.68367366    -0.12300
C703        C  0.17222701  0.47279463  0.66209291    -0.03300
C704        C  0.14181547  0.45186130  0.65618309     0.02100
C705        C  0.10253495  0.47313351  0.71651721     0.09000
N706        N  0.16490867  0.52183988  0.71998041     0.65300
H707        H  0.20234372  0.51220375  0.68779792     0.18200
N708        N  0.13368504  0.42829542  0.63451753     0.75800
H709        H  0.09613301  0.43548254  0.66974315     0.09800
C710        C  0.07586489  0.47167070  0.70616891     0.03500
C711        C  0.05512826  0.47130266  0.72734432    -0.05300
C712        C  0.06057282  0.47267535  0.75897146    -0.23600
C713        C  0.08636261  0.47206132  0.76913704     0.12700
C714        C  0.10684603  0.47235089  0.74803418    -0.12800
N715        N  0.07610452  0.97782999  0.67505537     0.64400
H716        H  0.03903372  0.97520241  0.71804451     0.12200
N717        N  0.09227894  0.47114993  0.80087771     0.61000
H718        H  0.12630488  0.47191686  0.75640038     0.08400
O719        O  0.12516421  0.43060084  0.60817017    -0.40400
O720        O  0.13083400  0.40357678  0.64303576    -0.39600
O721        O  0.17873147  0.52358231  0.74435174    -0.39600
O722        O  0.16452622  0.54474565  0.71033537    -0.37300
O723        O  0.11210144  0.49445173  0.81410987    -0.38200
O724        O  0.07939318  0.44652422  0.81509172    -0.34400
O725        O  0.05514458  0.95528702  0.66186798    -0.35800
O726        O  0.08954934  0.00261384  0.66117988    -0.40100
C727        C  0.35120157  0.32270192  0.99702389    -0.13800
C728        C  0.34118589  0.33528661  0.97466406     0.16600
C729        C  0.30993408  0.32336489  0.97085864     0.02900
C730        C  0.28976884  0.29897159  0.98865078    -0.12300
C731        C  0.29497808  0.29817218  0.51033953    -0.03300
C732        C  0.32530992  0.31110022  0.51926175     0.02100
C733        C  0.36357053  0.35895227  0.95413694     0.09000
N734        N  0.29796206  0.33594000  0.94976316     0.65300
H735        H  0.26607051  0.28994480  0.98532109     0.18200
N736        N  0.33370073  0.29986139  0.54497966     0.75800
H737        H  0.37479704  0.33103416  0.99984232     0.09800
C738        C  0.38743994  0.38626661  0.96527059     0.03500
C739        C  0.40876989  0.40717877  0.94495370    -0.05300
C740        C  0.40685286  0.40146321  0.91340586    -0.23600
C741        C  0.38310153  0.37381707  0.90250961     0.12700
C742        C  0.36233208  0.35284006  0.92288819    -0.12800
N743        N  0.39050267  0.39303357  0.99713383     0.64400
H744        H  0.42676894  0.42796871  0.95393456     0.12200
N745        N  0.37990909  0.36621027  0.87084513     0.61000
H746        H  0.34549347  0.33130492  0.91420852     0.08400
O747        O  0.33938690  0.31356287  0.57013080    -0.40400
O748        O  0.34029635  0.27954788  0.54124782    -0.39600
O749        O  0.29735703  0.33025840  0.92170467    -0.39600
O750        O  0.28025803  0.34421523  0.95964116    -0.37300
O751        O  0.39045798  0.35050345  0.86062250    -0.38200
O752        O  0.36192014  0.37018694  0.85469060    -0.34400
O753        O  0.40939365  0.40346824  0.51328421    -0.35800
O754        O  0.37761265  0.41815690  0.50176771    -0.40100
C755        C  0.16683930  0.13770619  0.99982422    -0.13800
C756        C  0.16213985  0.14528468  0.97046301     0.16600
C757        C  0.17914121  0.17507059  0.96030064     0.02900
C758        C  0.20118508  0.19669967  0.97913886    -0.12300
C759        C  0.19924722  0.20240734  0.50815851    -0.03300
C760        C  0.17590675  0.17584051  0.52156034     0.02100
C761        C  0.13843843  0.12245581  0.95090934     0.09000
N762        N  0.17442398  0.18354949  0.93065382     0.65300
H763        H  0.21416200  0.21943279  0.97057517     0.18200
N764        N  0.17302776  0.17193567  0.55386957     0.75800
H765        H  0.15335876  0.11484740  0.00791079     0.09800
C766        C  0.14215936  0.10056107  0.93567136     0.03500
C767        C  0.12029808  0.08112156  0.91503150    -0.05300
C768        C  0.09441555  0.08308306  0.90920645    -0.23600
C769        C  0.09017247  0.10406508  0.92620818     0.12700
C770        C  0.11225442  0.12363681  0.94649516    -0.12800
N771        N  0.16871640  0.09881922  0.93979980     0.64400
H772        H  0.12423990  0.06517876  0.90282954     0.12200
N773        N  0.06308106  0.10499947  0.92459431     0.61000
H774        H  0.10895664  0.13992210  0.95889239     0.08400
O775        O  0.18245422  0.15643402  0.56701072    -0.40400
O776        O  0.15606601  0.17881236  0.56810149    -0.39600
O777        O  0.15966697  0.19691197  0.92774872    -0.39600
O778        O  0.18780613  0.18077751  0.90790023    -0.37300
O779        O  0.04215409  0.08830584  0.94245359    -0.38200
O780        O  0.06384486  0.12815186  0.91394846    -0.34400
O781        O  0.14355714  0.08141079  0.48670090    -0.35800
O782        O  0.17725907  0.10585511  0.45177602    -0.40100
C783        C  0.33792904  0.31083900  0.70997385    -0.13800
C784        C  0.35106669  0.33999732  0.69793360     0.16600
C785        C  0.34178235  0.34440683  0.66905733     0.02900
C786        C  0.31834022  0.32005894  0.65387921    -0.12300
C787        C  0.30383839  0.29127135  0.66689367    -0.03300
C788        C  0.31436468  0.28658482  0.69489196     0.02100
C789        C  0.37224588  0.36532693  0.71737727     0.09000
N790        N  0.35452518  0.37353860  0.65552206     0.65300
H791        H  0.31071162  0.32401586  0.63228393     0.18200
N792        N  0.30155469  0.25738770  0.70824112     0.75800
H793        H  0.34549809  0.30704080  0.73166964     0.09800
C794        C  0.36326470  0.36939892  0.74650059     0.03500
C795        C  0.38417711  0.39086740  0.76624578    -0.05300
C796        C  0.41416885  0.40915252  0.75745349    -0.23600
C797        C  0.42294671  0.40618690  0.72775973     0.12700
C798        C  0.40208624  0.38393974  0.70818086    -0.12800
N799        N  0.33295215  0.35155588  0.75657279     0.64400
H800        H  0.37686361  0.39312217  0.78859785     0.12200
N801        N  0.45313000  0.42454571  0.71761673     0.61000
H802        H  0.40947927  0.38055114  0.68640491     0.08400
O803        O  0.28363758  0.25057694  0.73034356    -0.40400
O804        O  0.31226438  0.24075322  0.70180235    -0.39600
O805        O  0.37954348  0.38438808  0.64230810    -0.39600
O806        O  0.33759475  0.38390184  0.64910440    -0.37300
O807        O  0.47127437  0.41492460  0.71950224    -0.38200
O808        O  0.46013546  0.44788950  0.70225964    -0.34400
O809        O  0.32659837  0.33177546  0.77676609    -0.35800
O810        O  0.31415412  0.35956120  0.75000856    -0.40100
C811        C  0.12786093  0.10562027  0.72793151    -0.13800
C812        C  0.13883211  0.13611757  0.73375123     0.16600
C813        C  0.12863746  0.14463475  0.75952420     0.02900
C814        C  0.10786527  0.12261271  0.77921472    -0.12300
C815        C  0.09678967  0.09194957  0.77350204    -0.03300
C816        C  0.10671829  0.08355517  0.74736220     0.02100
C817        C  0.16144800  0.15872860  0.71300707     0.09000
N818        N  0.14014611  0.17558395  0.76663803     0.65300
H819        H  0.10098986  0.12954761  0.79944521     0.18200
N820        N  0.09433102  0.05274722  0.73936246     0.75800
H821        H  0.13533355  0.09896832  0.70793457     0.09800
C822        C  0.19128412  0.16503003  0.71398308     0.03500
C823        C  0.21253192  0.18648684  0.69432477    -0.05300
C824        C  0.20444986  0.20165707  0.67315155    -0.23600
C825        C  0.17447145  0.19524218  0.67196812     0.12700
C826        C  0.15317465  0.17383966  0.69192998    -0.12800
N827        N  0.20039738  0.15015044  0.73530639     0.64400
H828        H  0.23545290  0.19135298  0.69563381     0.12200
N829        N  0.16575435  0.21149934  0.65202961     0.61000
H830        H  0.13032161  0.16921227  0.69120709     0.08100
O831        O  0.11148757  0.04254464  0.73357270    -0.40400
O832        O  0.06679782  0.03727715  0.73314217    -0.39600
O833        O  0.12397142  0.18727657  0.76258423    -0.39600
O834        O  0.16435314  0.18976263  0.78132569    -0.37300
O835        O  0.15068068  0.19890818  0.62841688    -0.38200
O836        O  0.16797410  0.23583400  0.66096285    -0.34400
O837        O  0.20249381  0.12784660  0.72685737    -0.35800
O838        O  0.21028031  0.16173583  0.76112481    -0.40100
C839        C  0.23749685  0.71620780  0.15284724     0.80800
N840        N  0.23610680  0.71441815  0.12181479    -0.77500
C841        C  0.25967363  0.73465842  0.10473491     0.83200
N842        N  0.28437809  0.75674620  0.11874154    -0.77400
C843        C  0.28614808  0.75847552  0.14956224     0.83300
N844        N  0.26264831  0.73820192  0.16642434    -0.79200
C845        C  0.23447403  0.71143646  0.02502777     0.80800
N846        N  0.23525938  0.71109777  0.05604684    -0.77500
C847        C  0.25863542  0.73383808  0.07124436     0.83200
N848        N  0.28113492  0.75670705  0.05531711    -0.77400
C849        C  0.28039780  0.75716255  0.02441177     0.83300
N850        N  0.25690694  0.73458983  0.00956855    -0.79200
C851        C  0.24171513  0.96826606  0.14864468     0.80800
N852        N  0.24338415  0.97105555  0.11772061    -0.77500
C853        C  0.22085182  0.97110262  0.10158164     0.83200
N854        N  0.19658498  0.96855420  0.11647111    -0.77400
C855        C  0.19436015  0.96534483  0.14721836     0.83300
N856        N  0.21699489  0.96531745  0.16309922    -0.79200
C857        C  0.24637016  0.97677290  0.02138754     0.80800
N858        N  0.22289188  0.97585629  0.00633147    -0.77500
C859        C  0.19925566  0.97400120  0.02180217     0.83200
N860        N  0.19914036  0.97308692  0.05271054    -0.77400
C861        C  0.22220573  0.97351384  0.06813336     0.83300
N862        N  0.24578555  0.97529516  0.05241983    -0.79200
C863        C  0.46936818  0.72861177  0.15228050     0.80800
N864        N  0.46831784  0.72931628  0.12119417    -0.77500
C865        C  0.46635333  0.70616041  0.10442636     0.83200
N866        N  0.46566733  0.68244875  0.11870663    -0.77400
C867        C  0.46669497  0.68140868  0.14945127     0.83300
N868        N  0.46839366  0.70445129  0.16605009    -0.79200
C869        C  0.46634959  0.72854093  0.02364440     0.80800
N870        N  0.46598043  0.70491850  0.00922742    -0.77500
C871        C  0.46485020  0.68192065  0.02533434     0.83200
N872        N  0.46475387  0.68269539  0.05608777    -0.77400
C873        C  0.46533195  0.70605053  0.07097996     0.83300
N874        N  0.46617687  0.72904877  0.05476979    -0.79200
O875        O  0.42107858  0.50277867  0.29886416    -0.87600
C876        C  0.07594786  0.56894659  0.38192258     1.12400
O877        O  0.45811649  0.98039735  0.33550456    -1.35400
O878        O  0.05640906  0.57372819  0.30491222    -0.89100
O879        O  0.39857673  0.95560311  0.29968537    -0.89700
O880        O  0.46066034  0.95071774  0.27138124    -0.78600
O881        O  0.48736508  0.53920962  0.30580746    -1.00700
C882        C  0.04657295  0.98177786  0.28502426     1.22500
O883        O  0.48919698  0.94902188  0.33648237    -1.35500
Mn884      Mn  0.48834013  0.97997537  0.36959994     1.82100
O885        O  0.02344645  0.98175744  0.27620925    -0.77600
O886        O  0.08113936  0.54834314  0.30311787    -0.87000
C887        C  0.04222716  0.98068070  0.39698525     1.13600
C888        C  0.07679251  0.56935659  0.29415723     1.08300
O889        O  0.45619947  0.94831804  0.39957069    -0.78600
O890        O  0.02107529  0.51255895  0.33747297    -1.32300
O891        O  0.42955312  0.92070416  0.36326505    -0.97800
C892        C  0.48993335  0.89343694  0.29188420     1.07000
Mn893      Mn  0.06373648  0.51577651  0.33753114     1.48600
O894        O  0.46502714  0.88958069  0.30150137    -0.87000
Mn895      Mn  0.41564760  0.94006420  0.33413260     1.49600
O896        O  0.41939711  0.50210922  0.36643378    -0.90900
C897        C  0.48765408  0.53404494  0.27870614     1.20200
C898        C  0.40137473  0.97844425  0.37902013     1.12300
Mn899      Mn  0.49036722  0.98099501  0.30354238     1.81000
O900        O  0.04718615  0.98108547  0.36980023    -0.96000
Mn901      Mn  0.45302865  0.51876072  0.33359792     1.49300
C902        C  0.40322965  0.98078162  0.28960462     1.08800
Mn903      Mn  0.03129771  0.94802456  0.34050510     1.49900
C904        C  0.48771792  0.89242675  0.38054022     1.11700
O905        O  0.43137227  0.92202652  0.30562580    -1.01800
O906        O  0.08124466  0.54908130  0.37123378    -0.91500
C907        C  0.43706888  0.92732424  0.27853321     1.23000
O908        O  0.05077004  0.98217439  0.31248819    -1.02200
O909        O  0.05455793  0.57236406  0.37241776    -0.89600
O910        O  0.01618465  0.91491910  0.37389885    -0.89200
O911        O  0.39662439  0.95360858  0.36812195    -0.89200
Mn912      Mn  0.02247459  0.55463273  0.33777647     1.47900
O913        O  0.01852801  0.98012997  0.40466516    -0.77700
C914        C  0.43334776  0.92483736  0.39069736     1.16000
O915        O  0.48885824  0.51116899  0.27122774    -0.76400
O916        O  0.48587747  0.51155657  0.39936903    -0.76100
Mn917      Mn  0.44923181  0.90669542  0.33502802     1.51100
O918        O  0.01882491  0.91554100  0.30590028    -0.88400
O919        O  0.48533867  0.53860014  0.36328156    -0.95900
O920        O  0.46317061  0.88831683  0.36942809    -0.91000
C921        C  0.48431208  0.53397200  0.39064177     1.13800
C922        C  0.97980691  0.59698509  0.42887468    -0.13800
C923        C  0.48103319  0.59662251  0.45361844     0.16600
C924        C  0.49093403  0.57703350  0.46341839     0.02900
C925        C  0.49074932  0.55589110  0.44300737    -0.12300
C926        C  0.48148218  0.55453371  0.41250899    -0.03300
C927        C  0.97670439  0.57493032  0.40831807     0.02100
C928        C  0.48122049  0.61964968  0.47382858     0.09000
N929        N  0.50257399  0.57944888  0.49352407     0.65300
H930        H  0.49912274  0.54144339  0.45066852     0.18200
N931        N  0.96128393  0.57223229  0.38037150     0.75800
H932        H  0.97049305  0.61116596  0.42309410     0.09800
C933        C  0.01508476  0.65490437  0.47107746     0.03500
C934        C  0.00542550  0.65984167  0.01477486    -0.05300
C935        C  0.46825275  0.65854869  0.00994714    -0.23600
C936        C  0.45770166  0.63248621  0.51476568     0.12700
C937        C  0.46055231  0.61092574  0.49784329    -0.12800
N938        N  0.03190680  0.63320516  0.00149998     0.64400
H939        H  0.02248060  0.67222052  0.03174760     0.12200
N940        N  0.43458161  0.62279593  0.53718938     0.61000
H941        H  0.44574797  0.58736696  0.50250786     0.08400
O942        O  0.97482304  0.59159240  0.35995400    -0.40400
O943        O  0.93304467  0.55865817  0.38056342    -0.39600
O944        O  0.48683432  0.56057621  0.51364643    -0.39600
O945        O  0.52718309  0.60213930  0.50085252    -0.37300
O946        O  0.41005797  0.62121816  0.53033104    -0.38200
O947        O  0.43665777  0.61112240  0.56170980    -0.34400
O948        O  0.05401254  0.64618493  0.98371686    -0.35800
O949        O  0.06376591  0.67199314  0.45428046    -0.40100
C950        C  0.50576791  0.84298877  0.43037255    -0.13800
C951        C  0.47919991  0.82717956  0.44709789     0.16600
C952        C  0.45647559  0.83446523  0.44366437     0.02900
C953        C  0.46011157  0.85656968  0.42268137    -0.12300
C954        C  0.48626250  0.87170768  0.40489195    -0.03300
C955        C  0.50957198  0.86519153  0.40949644     0.02100
C956        C  0.47537019  0.80232582  0.46696854     0.09000
N957        N  0.42903816  0.81863284  0.46024452     0.65300
H958        H  0.44221604  0.86143689  0.41991408     0.18200
N959        N  0.53656958  0.87962219  0.39204022     0.75800
H960        H  0.52335622  0.83760754  0.43308693     0.09800
C961        C  0.47247867  0.77601429  0.45414974     0.03500
C962        C  0.47149523  0.75371723  0.47301394    -0.05300
C963        C  0.46840875  0.75382309  0.00497249    -0.23600
C964        C  0.46565083  0.77777354  0.01740020     0.12700
C965        C  0.47676025  0.80570814  0.49875045    -0.12800
N966        N  0.47055158  0.77163965  0.42184868     0.64400
H967        H  0.46933497  0.73387231  0.46227670     0.12200
N968        N  0.98402409  0.79233194  0.05022883     0.61000
H969        H  0.98949598  0.82910212  0.50985771     0.08400
O970        O  0.53947169  0.86636205  0.36923194    -0.40400
O971        O  0.55923901  0.90251355  0.40267635    -0.39600
O972        O  0.40903406  0.80933468  0.96677615    -0.39600
O973        O  0.40656532  0.78131980  0.92831975    -0.37300
O974        O  0.00856536  0.80806591  0.06396538    -0.38200
O975        O  0.95974652  0.78496905  0.06381035    -0.34400
O976        O  0.49325669  0.77550421  0.40718088    -0.35800
O977        O  0.44521592  0.75886333  0.40906974    -0.40100
C978        C  0.98436457  0.61877965  0.16948633    -0.13800
C979        C  0.46217768  0.60603264  0.19666293     0.16600
C980        C  0.44838546  0.62147825  0.20871207     0.02900
C981        C  0.44983647  0.64570036  0.19281183    -0.12300
C982        C  0.46488220  0.65495649  0.16481402    -0.03300
C983        C  0.98704553  0.64342435  0.15307864     0.02100
C984        C  0.46841731  0.58663005  0.21650890     0.09000
N985        N  0.43355976  0.61331377  0.23757158     0.65300
H986        H  0.43940092  0.65746610  0.20257715     0.18200
N987        N  0.00458457  0.65226430  0.12581858     0.75800
H988        H  0.99552822  0.60722211  0.16120604     0.09800
C989        C  0.45645680  0.55570912  0.21130483     0.03500
C990        C  0.46385905  0.53891342  0.23111604    -0.05300
C991        C  0.48342119  0.55275784  0.25586070    -0.23600
C992        C  0.49651158  0.58408478  0.25977169     0.12700
C993        C  0.48875272  0.60051869  0.24032753    -0.12800
N994        N  0.43637328  0.54104895  0.18651882     0.64400
H995        H  0.45362103  0.51496944  0.22772342     0.12200
N996        N  0.51928526  0.60010971  0.28197017     0.61000
H997        H  0.49906514  0.62449711  0.24359509     0.08400
O998        O  0.99392046  0.63728129  0.10167845    -0.40400
O999        O  0.03224881  0.67101663  0.12736662    -0.39600
O1000       O  0.44664495  0.62871807  0.26088398    -0.39600
O1001       O  0.40572000  0.59519482  0.23847542    -0.37300
O1002       O  0.54559283  0.61770896  0.27286054    -0.38200
O1003       O  0.51184266  0.60392406  0.30820548    -0.34400
O1004       O  0.44608344  0.53582478  0.16224241    -0.35800
O1005       O  0.40849777  0.52896145  0.19069427    -0.40100
C1006       C  0.01707320  0.85011300  0.24288113    -0.13800
C1007       C  0.48264212  0.82973826  0.22346252     0.16600
C1008       C  0.45846091  0.83426983  0.22968443     0.02900
C1009       C  0.46180536  0.85589086  0.25108518    -0.12300
C1010       C  0.48892607  0.87311937  0.26707024    -0.03300
C1011       C  0.01914172  0.87087696  0.26486879     0.02100
C1012       C  0.47864847  0.80406254  0.20477144     0.09000
N1013       N  0.42974044  0.81562501  0.21613196     0.65300
H1014       H  0.44261814  0.85846102  0.25583002     0.18200
N1015       N  0.04573656  0.88577799  0.28289402     0.75800
H1016       H  0.03576060  0.84631368  0.23984741     0.09800
C1017       C  0.00561303  0.81414619  0.17997829     0.03500
C1018       C  0.00285025  0.79015732  0.16231499    -0.05300
C1019       C  0.47190617  0.75409827  0.17095460    -0.23600
C1020       C  0.47261872  0.75400708  0.20335701     0.12700
C1021       C  0.47593605  0.77881758  0.21974023    -0.12800
N1022       N  0.02661955  0.84418364  0.17104689     0.64400
H1023       H  0.01658559  0.79494270  0.14221905     0.12200
N1024       N  0.47013184  0.72910228  0.22025951     0.61000
H1025       H  0.47651220  0.77842620  0.24434060     0.08400
O1026       O  0.06859894  0.90833493  0.27211821    -0.40400
O1027       O  0.04850722  0.87251619  0.30579802    -0.39600
O1028       O  0.41074173  0.79224360  0.22990360    -0.39600
O1029       O  0.42127918  0.82568975  0.19439968    -0.37300
O1030       O  0.49354998  0.72927500  0.22897084    -0.38200
O1031       O  0.44509901  0.70996278  0.23115581    -0.34400
O1032       O  0.05399135  0.85515046  0.17749464    -0.35800
O1033       O  0.01871032  0.85781123  0.15268627    -0.40100
C1034       C  0.31930669  0.97362677  0.49971024    -0.13800
C1035       C  0.32317664  0.98433310  0.46971469     0.16600
C1036       C  0.30433580  0.99447458  0.45826530     0.02900
C1037       C  0.28832736  0.96587745  0.01674064    -0.12300
C1038       C  0.27165001  0.97801393  0.00393787    -0.03300
C1039       C  0.29631973  0.97214896  0.51814043     0.02100
C1040       C  0.34486337  0.98215170  0.44941337     0.09000
N1041       N  0.32913553  0.95471278  0.01488865     0.65300
H1042       H  0.28352651  0.95681983  0.03962196     0.18200
N1043       N  0.27773460  0.43658994  0.53414856     0.75800
H1044       H  0.32171691  0.44962947  0.49532393     0.09800
C1045       C  0.37323695  0.00705348  0.44350743     0.03500
C1046       C  0.39167970  0.00518418  0.42116320    -0.05300
C1047       C  0.38220064  0.97850787  0.40440785    -0.23600
C1048       C  0.35424790  0.95305508  0.41170954     0.12700
C1049       C  0.33582614  0.95515188  0.43390195    -0.12800
N1050       N  0.38367662  0.03446933  0.45996570     0.64400
H1051       H  0.41270255  0.02414047  0.41705336     0.12200
N1052       N  0.34363436  0.92511658  0.39624288     0.61000
H1053       H  0.31437994  0.93615478  0.43841864     0.08400
O1054       O  0.29700162  0.43499683  0.55058259    -0.40400
O1055       O  0.25109316  0.41500770  0.53423882    -0.39600
O1056       O  0.35555713  0.97320818  0.02309270    -0.39600
O1057       O  0.32121990  0.03271532  0.42214422    -0.37300
O1058       O  0.32315538  0.42021030  0.36546678    -0.38200
O1059       O  0.34271429  0.40394609  0.39930523    -0.34400
O1060       O  0.39776291  0.03833312  0.48464390    -0.35800
O1061       O  0.38390451  0.05656681  0.44722716    -0.40100
C1062       C  0.14817482  0.96670007  0.46168666    -0.13800
C1063       C  0.13247174  0.97947920  0.47522827     0.16600
C1064       C  0.13409778  0.47921466  0.50261455     0.02900
C1065       C  0.17833149  0.48678857  0.98579705    -0.12300
C1066       C  0.17419487  0.97366606  0.00510653    -0.03300
C1067       C  0.17113867  0.96521699  0.47722013     0.02100
C1068       C  0.10968924  0.98236052  0.45675569     0.09000
N1069       N  0.11821539  0.49132084  0.51825322     0.65300
H1070       H  0.20204990  0.50293963  0.98401065     0.18200
N1071       N  0.18626801  0.95200849  0.46209565     0.75800
H1072       H  0.14257638  0.95775854  0.43884336     0.09800
C1073       C  0.11674823  0.99492297  0.42721317     0.03500
C1074       C  0.09444228  0.99438753  0.40874209    -0.05300
C1075       C  0.06479027  0.98207340  0.41902384    -0.23600
C1076       C  0.05778154  0.97053703  0.44896783     0.12700
C1077       C  0.08012354  0.97048712  0.46744531    -0.12800
N1078       N  0.14661716  0.00849478  0.41554546     0.64400
H1079       H  0.10052202  0.00386534  0.38611514     0.12200
N1080       N  0.02789166  0.95736376  0.46036961     0.61000
H1081       H  0.07406638  0.96017270  0.48966367     0.08400
O1082       O  0.20387685  0.96571082  0.44032296    -0.40400
O1083       O  0.17873137  0.92504212  0.46744817    -0.39600
O1084       O  0.16274346  0.53831986  0.96164777    -0.39600
O1085       O  0.12695953  0.51893359  0.51598187    -0.37300
O1086       O  0.01002045  0.92966724  0.45669337    -0.38200
O1087       O  0.02099214  0.97214548  0.47824324    -0.34400
O1088       O  0.15214749  0.99709684  0.39274638    -0.35800
O1089       O  0.16592310  0.03443404  0.42435978    -0.40100
C1090       C  0.35618861  0.00248203  0.23991265    -0.13800
C1091       C  0.33850021  0.97575634  0.22378250     0.16600
C1092       C  0.34432972  0.95191787  0.22707965     0.02900
C1093       C  0.36662929  0.95463958  0.24737078    -0.12300
C1094       C  0.38325478  0.98075199  0.26495252    -0.03300
C1095       C  0.37839396  0.00522155  0.26030006     0.02100
C1096       C  0.31356600  0.97300328  0.20437357     0.09000
N1097       N  0.32677173  0.92420521  0.21122664     0.65300
H1098       H  0.37006786  0.93575019  0.25023234     0.18200
N1099       N  0.39461431  0.03247045  0.27720793     0.75800
H1100       H  0.35229624  0.02110526  0.23714133     0.09800
C1101       C  0.28948720  0.97460189  0.21740611     0.03500
C1102       C  0.26654750  0.97283663  0.19889236    -0.05300
C1103       C  0.26687066  0.96961076  0.16701209    -0.23600
C1104       C  0.29125660  0.96808969  0.15391326     0.12700
C1105       C  0.31413464  0.96959725  0.17267047    -0.12800
N1106       N  0.28773863  0.97744349  0.24965602     0.64400
H1107       H  0.24840702  0.97413968  0.20977944     0.12200
N1108       N  0.29638808  0.47718602  0.12285634     0.61000
H1109       H  0.33581495  0.47923816  0.16243319     0.08400
O1110       O  0.38263643  0.03717355  0.30002583    -0.40400
O1111       O  0.41898643  0.05342995  0.26688088    -0.39600
O1112       O  0.33957762  0.91367201  0.19509128    -0.39600
O1113       O  0.29919143  0.90816518  0.21697960    -0.37300
O1114       O  0.30476438  0.50390747  0.11530668    -0.38200
O1115       O  0.29891053  0.46003896  0.10404570    -0.34400
O1116       O  0.29307137  0.00220049  0.26090266    -0.35800
O1117       O  0.27679821  0.95432859  0.26627159    -0.40100
C1118       C  0.13368751  0.94723716  0.20618558    -0.13800
C1119       C  0.12468625  0.96811059  0.19879277     0.16600
C1120       C  0.13698721  0.98631149  0.17261821     0.02900
C1121       C  0.15830799  0.98368406  0.15496805    -0.12300
C1122       C  0.16853384  0.96403984  0.16351638    -0.03300
C1123       C  0.15540807  0.94513436  0.18892270     0.02100
C1124       C  0.10422017  0.97175387  0.22011224     0.09000
N1125       N  0.13003494  0.00920750  0.16504819     0.65300
H1126       H  0.16839665  0.99853777  0.13567548     0.18200
N1127       N  0.16349613  0.92325305  0.19712555     0.75800
H1128       H  0.12408374  0.93276067  0.22583186     0.09800
C1129       C  0.07657430  0.96866350  0.21080722     0.03500
C1130       C  0.05860128  0.97280345  0.23209003    -0.05300
C1131       C  0.06717178  0.97929804  0.26289261    -0.23600
C1132       C  0.09454219  0.98161827  0.27217505     0.12700
C1133       C  0.11275183  0.97816622  0.25082466    -0.12800
N1134       N  0.06291431  0.45212134  0.17988090     0.64400
H1135       H  0.03568760  0.46649483  0.22201026     0.12200
N1136       N  0.10393540  0.98669380  0.30334820     0.61000
H1137       H  0.13375592  0.98034614  0.25838565     0.08400
O1138       O  0.15138647  0.89828038  0.18355730    -0.40400
O1139       O  0.17884476  0.92692148  0.22084161    -0.39600
O1140       O  0.13735546  0.03087399  0.18312571    -0.39600
O1141       O  0.12170081  0.01067732  0.13833259    -0.37300
O1142       O  0.11824746  0.01308977  0.31368032    -0.38200
O1143       O  0.09885578  0.96481377  0.32029881    -0.34400
O1144       O  0.05504434  0.42534792  0.17308058    -0.35800
O1145       O  0.05557346  0.46699798  0.16259432    -0.40100
C1146       C  0.34782336  0.83626426  0.50372896    -0.13800
C1147       C  0.34141623  0.84205214  0.47415860     0.16600
C1148       C  0.31168755  0.82528820  0.46327508     0.02900
C1149       C  0.28955602  0.80256579  0.48124268    -0.12300
C1150       C  0.30381736  0.78262644  0.00670754    -0.03300
C1151       C  0.33396555  0.79899273  0.01629328     0.02100
C1152       C  0.36617905  0.86339912  0.45382742     0.09000
N1153       N  0.30346722  0.83113063  0.43398635     0.65300
H1154       H  0.26708787  0.78989556  0.47214015     0.18200
N1155       N  0.34372692  0.79090047  0.04334366     0.75800
H1156       H  0.37052116  0.84831542  0.51223554     0.09800
C1157       C  0.38694828  0.89311889  0.46263368     0.03500
C1158       C  0.40929037  0.91245354  0.44217898    -0.05300
C1159       C  0.41104200  0.90297661  0.41255724    -0.23600
C1160       C  0.39076682  0.87288194  0.40416461     0.12700
C1161       C  0.36920639  0.85342741  0.42497546    -0.12800
N1162       N  0.38487275  0.90448415  0.49169448     0.64400
H1163       H  0.42448637  0.93528087  0.44909423     0.12200
N1164       N  0.39149820  0.86153305  0.37458810     0.61000
H1165       H  0.35441653  0.83045901  0.41830157     0.08400
O1166       O  0.34892888  0.80643969  0.06721113    -0.40400
O1167       O  0.35115223  0.77099382  0.04215355    -0.39600
O1168       O  0.29554853  0.81164390  0.41320416    -0.39600
O1169       O  0.29774226  0.85213817  0.43115738    -0.37300
O1170       O  0.39998772  0.84251594  0.37197142    -0.38200
O1171       O  0.37704291  0.86465930  0.35303198    -0.34400
O1172       O  0.41240504  0.89416364  0.01120951    -0.35800
O1173       O  0.37334220  0.89906338  0.00313806    -0.40100
C1174       C  0.15467869  0.65453014  0.49867912    -0.13800
C1175       C  0.16229199  0.65228448  0.46850337     0.16600
C1176       C  0.19117398  0.67257441  0.45776539     0.02900
C1177       C  0.21185622  0.69497306  0.47708873    -0.12300
C1178       C  0.20930420  0.68775008  0.00746514    -0.03300
C1179       C  0.19528902  0.65709137  0.01547801     0.02100
C1180       C  0.13930249  0.63000237  0.44782398     0.09000
N1181       N  0.19953352  0.67133128  0.42695139     0.65300
H1182       H  0.23386257  0.71033710  0.46817354     0.18200
N1183       N  0.20347032  0.64751046  0.04258848     0.75800
H1184       H  0.13238885  0.63913566  0.50693467     0.09800
C1185       C  0.13740967  0.60228668  0.44172055     0.03500
C1186       C  0.11598965  0.58229318  0.42102767    -0.05300
C1187       C  0.09634596  0.58956852  0.40588243    -0.23600
C1188       C  0.09808808  0.61734173  0.41264031     0.12700
C1189       C  0.11937775  0.63711184  0.43352935    -0.12800
N1190       N  0.15714507  0.59417584  0.45628341     0.64400
H1191       H  0.11512924  0.56127349  0.41649714     0.12200
N1192       N  0.07951767  0.62661118  0.39748089     0.61000
H1193       H  0.12080888  0.65840805  0.43811560     0.08400
O1194       O  0.22419513  0.64126219  0.04167311    -0.40400
O1195       O  0.18672271  0.64026248  0.06571504    -0.39600
O1196       O  0.19358463  0.68466694  0.40632945    -0.39600
O1197       O  0.21794233  0.66255602  0.42151892    -0.37300
O1198       O  0.05518158  0.62139025  0.40954998    -0.38200
O1199       O  0.08962312  0.64409444  0.37489219    -0.34400
O1200       O  0.18577589  0.59051670  0.92813102    -0.35800
O1201       O  0.19932991  0.63574400  0.91259451    -0.40100
C1202       C  0.34392025  0.80610434  0.20897309    -0.13800
C1203       C  0.35598270  0.83483677  0.19610144     0.16600
C1204       C  0.34765108  0.83772410  0.16618657     0.02900
C1205       C  0.32575947  0.81229263  0.15076672    -0.12300
C1206       C  0.31218841  0.78383469  0.16457481    -0.03300
C1207       C  0.32227117  0.78071140  0.19350540     0.02100
C1208       C  0.37596045  0.86114684  0.21520835     0.09000
N1209       N  0.36005620  0.86634538  0.15164780     0.65300
H1210       H  0.31855920  0.81504798  0.12848974     0.18200
N1211       N  0.31127340  0.75186233  0.20719660     0.75800
H1212       H  0.35113003  0.80344095  0.23126930     0.09800
C1213       C  0.36625673  0.86497042  0.24405183     0.03500
C1214       C  0.38645820  0.88697206  0.26391419    -0.05300
C1215       C  0.41635925  0.90617664  0.25539955    -0.23600
C1216       C  0.42572316  0.90360898  0.22580925     0.12700
C1217       C  0.40561921  0.88084504  0.20616959    -0.12800
N1218       N  0.33584575  0.84652018  0.25357384     0.64400
H1219       H  0.37864116  0.88902401  0.28609069     0.12200
N1220       N  0.45579274  0.92296399  0.21581080     0.61000
H1221       H  0.41349617  0.87793019  0.18444658     0.08400
O1222       O  0.29552016  0.74521126  0.23103495    -0.40400
O1223       O  0.32182897  0.73554312  0.19891295    -0.39600
O1224       O  0.38315548  0.87538697  0.13535357    -0.39600
O1225       O  0.34397420  0.87823003  0.14834304    -0.37300
O1226       O  0.47466617  0.91423814  0.21735464    -0.38200
O1227       O  0.46194991  0.94617963  0.20061466    -0.34400
O1228       O  0.32974174  0.82810596  0.27515000    -0.35800
O1229       O  0.31618983  0.85243389  0.24433744    -0.40100
C1230       C  0.12856091  0.60240769  0.22588618    -0.13800
C1231       C  0.14171433  0.63315388  0.23184234     0.16600
C1232       C  0.13242519  0.64284580  0.25749971     0.02900
C1233       C  0.11048108  0.62166667  0.27696155    -0.12300
C1234       C  0.09748448  0.59078789  0.27125081    -0.03300
C1235       C  0.10648022  0.58117144  0.24524237     0.02100
C1236       C  0.16605136  0.65460821  0.21171866     0.09000
N1237       N  0.14518525  0.67407443  0.26413654     0.65300
H1238       H  0.10411571  0.62938868  0.29708590     0.18200
N1239       N  0.09281695  0.55003795  0.23771469     0.75800
H1240       H  0.13553850  0.59489705  0.20603951     0.09800
C1241       C  0.19615023  0.66809954  0.22099571     0.03500
C1242       C  0.21886512  0.68812869  0.20151067    -0.05300
C1243       C  0.21226674  0.69461598  0.17230092    -0.23600
C1244       C  0.18198018  0.68077193  0.16292542     0.12700
C1245       C  0.15918304  0.66092987  0.18266990    -0.12800
N1246       N  0.20408180  0.66055119  0.24956873     0.64400
H1247       H  0.24175210  0.69791629  0.20896196     0.12200
N1248       N  0.17385049  0.68742250  0.13401902     0.61000
H1249       H  0.13613520  0.65061441  0.17543904     0.08100
O1250       O  0.10889229  0.53918029  0.22958223    -0.40400
O1251       O  0.06476150  0.53468288  0.23451117    -0.39600
O1252       O  0.13478412  0.68885122  0.25126448    -0.39600
O1253       O  0.16231131  0.68518823  0.28685696    -0.37300
O1254       O  0.16627725  0.66868842  0.11255179    -0.38200
O1255       O  0.16888523  0.70898789  0.13173552    -0.34400
O1256       O  0.20306793  0.63566500  0.25249112    -0.35800
O1257       O  0.21711930  0.68054204  0.26963737    -0.40100
C1258       C  0.23323284  0.72003958  0.65439583     0.80800
N1259       N  0.23004136  0.72051272  0.62351832    -0.77500
C1260       C  0.25217979  0.74286004  0.60663309     0.83200
N1261       N  0.27708304  0.76454773  0.62074636    -0.77400
C1262       C  0.28051850  0.76402997  0.65132611     0.83300
N1263       N  0.25851978  0.74174622  0.66794143    -0.79200
C1264       C  0.22719313  0.72301204  0.52608233     0.80800
N1265       N  0.22764883  0.72147744  0.55711154    -0.77500
C1266       C  0.25014562  0.74426351  0.57322798     0.83200
N1267       N  0.27215580  0.76839673  0.55820950    -0.77400
C1268       C  0.27185953  0.77019921  0.52737964     0.83300
N1269       N  0.24930363  0.74742827  0.51165113    -0.79200
C1270       C  0.25107327  0.98310357  0.65171605     0.80800
N1271       N  0.25145738  0.98227347  0.62070111    -0.77500
C1272       C  0.22792887  0.97988103  0.60432104     0.83200
N1273       N  0.20401534  0.97835557  0.61908117    -0.77400
C1274       C  0.20347802  0.97931239  0.64998845     0.83300
N1275       N  0.22706663  0.98169241  0.66615787    -0.79200
C1276       C  0.25121639  0.97962249  0.52416385     0.80800
N1277       N  0.22745861  0.97807808  0.50897775    -0.77500
C1278       C  0.20393451  0.97677257  0.52422882     0.83200
N1279       N  0.20451016  0.97743183  0.55516732    -0.77400
C1280       C  0.22802287  0.97901336  0.57077924     0.83300
N1281       N  0.25140586  0.98014017  0.55522598    -0.79200
C1282       C  0.47744849  0.73415531  0.65101623     0.80800
N1283       N  0.47605262  0.73389166  0.61997698    -0.77500
C1284       C  0.47588248  0.71124262  0.60383595     0.83200
N1285       N  0.47726800  0.68884839  0.61872050    -0.77400
C1286       C  0.47873808  0.68878696  0.64953918     0.83300
N1287       N  0.47865728  0.71139794  0.66544648    -0.79200
C1288       C  0.47362707  0.73265730  0.52344618     0.80800
N1289       N  0.47380478  0.70951119  0.50878117    -0.77500
C1290       C  0.47376166  0.68681939  0.52442654     0.83200
N1291       N  0.47407526  0.68742099  0.55529119    -0.77400
C1292       C  0.47433646  0.71057549  0.57043211     0.83300
N1293       N  0.47404584  0.73314315  0.55449507    -0.79200
O1294       O  0.42438742  0.50948597  0.80409123    -0.87600
C1295       C  0.07699078  0.56251719  0.88378174     1.12400
O1296       O  0.45899521  0.98175442  0.83783959    -1.35400
O1297       O  0.06121027  0.57306566  0.80827497    -0.89100
O1298       O  0.40000760  0.95966083  0.80260561    -0.89700
O1299       O  0.46032355  0.95314679  0.77241873    -0.78600
O1300       O  0.49107857  0.54234449  0.81251405    -1.00700
C1301       C  0.04188936  0.98005934  0.78012912     1.22500
O1302       O  0.48897700  0.94918837  0.83712873    -1.35500
Mn1303     Mn  0.48853655  0.97936064  0.87127758     1.82100
O1304       O  0.01945466  0.98142652  0.77130069    -0.77600
O1305       O  0.08081198  0.54311933  0.80296842    -0.87000
C1306       C  0.04098488  0.97894904  0.89180967     1.13600
C1307       C  0.07971727  0.56663548  0.79635556     1.08300
O1308       O  0.45621047  0.94688574  0.90078276    -0.78600
O1309       O  0.02036837  0.51119114  0.83747966    -1.32300
O1310       O  0.42978556  0.92141049  0.86356355    -0.97800
C1311       C  0.48888056  0.89450958  0.79057735     1.07000
Mn1312     Mn  0.06094791  0.51012144  0.83682186     1.48600
O1313       O  0.46393628  0.89107974  0.79953525    -0.87000
Mn1314     Mn  0.41628875  0.94234287  0.83601022     1.49600
O1315       O  0.42169555  0.50623972  0.87254112    -0.90900
C1316       C  0.49224966  0.53816562  0.78519216     1.20200
C1317       C  0.40346114  0.98102919  0.88249301     1.12300
Mn1318     Mn  0.49071480  0.98223495  0.80527256     1.81000
O1319       O  0.04552859  0.97929353  0.86444672    -0.96000
Mn1320     Mn  0.45569934  0.52205173  0.83955797     1.49300
C1321       C  0.40521168  0.98538043  0.79373760     1.08800
Mn1322     Mn  0.02687239  0.94609677  0.83498134     1.49900
C1323       C  0.48615218  0.89133602  0.88029512     1.11700
O1324       O  0.43127597  0.92442384  0.80658915    -1.01800
O1325       O  0.08089757  0.54260872  0.87091455    -0.91500
C1326       C  0.43642171  0.93004251  0.77954140     1.23000
O1327       O  0.04545373  0.98019165  0.80746800    -1.02200
O1328       O  0.05668048  0.56826163  0.87560264    -0.89600
O1329       O  0.01182692  0.91269912  0.86815894    -0.89200
O1330       O  0.39830800  0.95621221  0.87094565    -0.89200
Mn1331     Mn  0.02596828  0.55489925  0.83929850     1.47900
O1332       O  0.01764339  0.97866174  0.90032259    -0.77700
C1333       C  0.43345365  0.92384465  0.89101765     1.16000
O1334       O  0.49199316  0.51465044  0.77702181    -0.76400
O1335       O  0.48473165  0.50881558  0.90513507    -0.76100
Mn1336     Mn  0.44866380  0.90741229  0.83447051     1.51100
O1337       O  0.01203011  0.91384030  0.79958051    -0.88400
O1338       O  0.48746917  0.53796985  0.86997759    -0.95900
O1339       O  0.46209990  0.88732593  0.86785376    -0.91000
C1340       C  0.48534011  0.53250584  0.89717407     1.13800
C1341       C  0.99685179  0.60817167  0.92522492    -0.13800
C1342       C  0.48051944  0.59359579  0.96142052     0.16600
C1343       C  0.47584436  0.56558943  0.97147173     0.02900
C1344       C  0.47723639  0.54561586  0.95045995    -0.12300
C1345       C  0.48317580  0.55330847  0.91935269    -0.03300
C1346       C  0.99719980  0.58761313  0.90475946     0.02100
C1347       C  0.47700932  0.61457736  0.98157583     0.09000
N1348       N  0.47029820  0.55755128  0.00296541     0.65300
H1349       H  0.47391528  0.52428771  0.95850870     0.18200
N1350       N  0.00665706  0.59740229  0.87424691     0.75800
H1351       H  0.00415803  0.63081927  0.91764665     0.09800
C1352       C  0.00693470  0.63773330  0.99751506     0.03500
C1353       C  0.01198489  0.67649277  0.48744798    -0.05300
C1354       C  0.47594227  0.66319315  0.50771986    -0.23600
C1355       C  0.44351324  0.63011152  0.00350134     0.12700
C1356       C  0.44804033  0.60824969  0.98943509    -0.12800
N1357       N  0.03709440  0.66435409  0.44751346     0.64400
H1358       H  0.02655068  0.70002289  0.48210480     0.12200
N1359       N  0.41369282  0.62365681  0.00981357     0.61000
H1360       H  0.42891486  0.58687339  0.98339163     0.08400
O1361       O  0.03424443  0.61311491  0.86838640    -0.40400
O1362       O  0.98768435  0.59587918  0.85506729    -0.39600
O1363       O  0.44409402  0.53913876  0.01177538    -0.39600
O1364       O  0.49076453  0.57139608  0.02239522    -0.37300
O1365       O  0.39963641  0.62969307  0.99010263    -0.38200
O1366       O  0.39980500  0.60750239  0.03243286    -0.34400
O1367       O  0.03122647  0.67021307  0.42131180    -0.35800
O1368       O  0.03479767  0.62225956  0.02616238    -0.40100
C1369       C  0.50507937  0.84760367  0.93833389    -0.13800
C1370       C  0.47634273  0.82536070  0.94730773     0.16600
C1371       C  0.45123230  0.82612182  0.93607684     0.02900
C1372       C  0.45494616  0.84822553  0.91502273    -0.12300
C1373       C  0.48370528  0.87005517  0.90482604    -0.03300
C1374       C  0.50900837  0.87002535  0.91752684     0.02100
C1375       C  0.47298632  0.80049168  0.96693636     0.09000
N1376       N  0.42166422  0.80394011  0.94504721     0.65300
H1377       H  0.43559384  0.84786650  0.90655536     0.18200
N1378       N  0.53888548  0.89223123  0.90947225     0.75800
H1379       H  0.52424113  0.84726901  0.94703883     0.09800
C1380       C  0.47581157  0.77690326  0.95450550     0.03500
C1381       C  0.47346851  0.75392893  0.97335283    -0.05300
C1382       C  0.47356589  0.75699403  0.50499410    -0.23600
C1383       C  0.47599806  0.78340501  0.51785366     0.12700
C1384       C  0.46780567  0.80071856  0.99828109    -0.12800
N1385       N  0.48092689  0.77590962  0.92260183     0.64400
H1386       H  0.47580146  0.73623096  0.96296818     0.12200
N1387       N  0.99222303  0.79315655  0.55085978     0.61000
H1388       H  0.98199397  0.82821094  0.00832407     0.08400
O1389       O  0.55223977  0.88683035  0.88848070    -0.40400
O1390       O  0.55377199  0.91397829  0.92727970    -0.39600
O1391       O  0.42413175  0.83124685  0.48236619    -0.39600
O1392       O  0.40787492  0.79454347  0.44956782    -0.37300
O1393       O  0.01824380  0.80625109  0.56213723    -0.38200
O1394       O  0.97045647  0.79010320  0.56670132    -0.34400
O1395       O  0.50677079  0.78297873  0.91325232    -0.35800
O1396       O  0.45892339  0.76340625  0.90460079    -0.40100
C1397       C  0.98567826  0.61997910  0.66984776    -0.13800
C1398       C  0.47900733  0.61693926  0.69993563     0.16600
C1399       C  0.46595615  0.63320495  0.71199669     0.02900
C1400       C  0.46625556  0.65635536  0.69516283    -0.12300
C1401       C  0.47891038  0.66366969  0.66595036    -0.03300
C1402       C  0.98698540  0.64412520  0.65379291     0.02100
C1403       C  0.48419071  0.59657649  0.71982359     0.09000
N1404       N  0.45221756  0.62649504  0.74145623     0.65300
H1405       H  0.45624132  0.66841066  0.70496747     0.18200
N1406       N  0.00505443  0.65442774  0.62688467     0.75800
H1407       H  0.99815230  0.60970537  0.66163159     0.09800
C1408       C  0.47582189  0.56683241  0.71194035     0.03500
C1409       C  0.48009887  0.54863235  0.73297892    -0.05300
C1410       C  0.49205222  0.55942135  0.76223584    -0.23600
C1411       C  0.50150458  0.58975544  0.76924044     0.12700
C1412       C  0.49834798  0.60792748  0.74774694    -0.12800
N1413       N  0.46187104  0.55438108  0.68332482     0.64400
H1414       H  0.47267227  0.52568805  0.72696154     0.12200
N1415       N  0.51364614  0.60291502  0.79817223     0.61000
H1416       H  0.50651370  0.63109425  0.75329818     0.08400
O1417       O  0.99815231  0.63747936  0.60390381    -0.40400
O1418       O  0.03043902  0.67791793  0.62800120    -0.39600
O1419       O  0.46461338  0.64490318  0.76302076    -0.39600
O1420       O  0.42501344  0.60654845  0.74381752    -0.37300
O1421       O  0.54092136  0.61202835  0.80324575    -0.38200
O1422       O  0.50149514  0.61545150  0.81215583    -0.34400
O1423       O  0.47626161  0.54951455  0.66303723    -0.35800
O1424       O  0.43398049  0.54348941  0.68038834    -0.40100
C1425       C  0.00611843  0.85119519  0.73000770    -0.13800
C1426       C  0.48315135  0.83384777  0.71908530     0.16600
C1427       C  0.45840151  0.83718950  0.72630260     0.02900
C1428       C  0.46127866  0.85803686  0.74855130    -0.12300
C1429       C  0.48841399  0.87550314  0.76451481    -0.03300
C1430       C  0.01012914  0.87289957  0.75182690     0.02100
C1431       C  0.47992096  0.80801837  0.70103914     0.09000
N1432       N  0.42963958  0.81805710  0.71303664     0.65300
H1433       H  0.44164691  0.85952695  0.75419965     0.18200
N1434       N  0.03988127  0.89314408  0.76218520     0.75800
H1435       H  0.02548923  0.85014041  0.72195222     0.09800
C1436       C  0.97624370  0.80485097  0.66991322     0.03500
C1437       C  0.97554607  0.78084346  0.65400184    -0.05300
C1438       C  0.47766456  0.75904805  0.66887373    -0.23600
C1439       C  0.48113399  0.76124734  0.70105647     0.12700
C1440       C  0.48221075  0.78549372  0.71658325    -0.12800
N1441       N  0.97955336  0.83023305  0.65333931     0.64400
H1442       H  0.97778894  0.78243091  0.62954468     0.12200
N1443       N  0.48410687  0.73946597  0.71858470     0.61000
H1444       H  0.48522470  0.78693982  0.74100677     0.08400
O1445       O  0.05947925  0.90978670  0.74306072    -0.40400
O1446       O  0.04814873  0.88891482  0.78791281    -0.39600
O1447       O  0.41343975  0.79192596  0.72350442    -0.39600
O1448       O  0.41808998  0.82917228  0.69580474    -0.37300
O1449       O  0.50989810  0.74386827  0.72481385    -0.38200
O1450       O  0.46171993  0.71948158  0.73282844    -0.34400
O1451       O  0.00493504  0.84934549  0.64315481    -0.35800
O1452       O  0.95655382  0.83079540  0.64447672    -0.40100
C1453       C  0.30120061  0.98880877  0.95753749    -0.13800
C1454       C  0.31773908  0.97667418  0.97028067     0.16600
C1455       C  0.31146652  0.96543122  0.00032084     0.02900
C1456       C  0.28155204  0.99321909  0.47657567    -0.12300
C1457       C  0.27683893  0.98171546  0.50645760    -0.03300
C1458       C  0.27874610  0.99008200  0.97409943     0.02100
C1459       C  0.34193240  0.97720701  0.95160441     0.09000
N1460       N  0.30727974  0.00490211  0.42754649     0.65300
H1461       H  0.26723771  0.00095288  0.46709862     0.18200
N1462       N  0.25536048  0.49185849  0.96235497     0.75800
H1463       H  0.30108249  0.49165739  0.93714941     0.09800
C1464       C  0.34071385  0.95076063  0.94108091     0.03500
C1465       C  0.36189714  0.95261072  0.91981350    -0.05300
C1466       C  0.38367975  0.98045066  0.90761885    -0.23600
C1467       C  0.38514114  0.00694114  0.91900256     0.12700
C1468       C  0.36478836  0.00501169  0.94117422    -0.12800
N1469       N  0.31675339  0.92184860  0.94975188     0.64400
H1470       H  0.36020561  0.93201832  0.91170238     0.12200
N1471       N  0.40568218  0.03595914  0.90706209     0.61000
H1472       H  0.36571303  0.02536483  0.94897304     0.08400
O1473       O  0.23630810  0.47774789  0.94175540    -0.40400
O1474       O  0.26371612  0.51911484  0.96711568    -0.39600
O1475       O  0.29184007  0.98678295  0.40673657    -0.39600
O1476       O  0.31672418  0.92811416  0.02473400    -0.37300
O1477       O  0.41712344  0.55531750  0.92295418    -0.38200
O1478       O  0.39277787  0.54057989  0.88002395    -0.34400
O1479       O  0.29068206  0.91295023  0.93972422    -0.35800
O1480       O  0.32254063  0.90335040  0.96250799    -0.40100
C1481       C  0.14189431  0.96064137  0.96062562    -0.13800
C1482       C  0.12999548  0.97818150  0.97134326     0.16600
C1483       C  0.15799327  0.49156761  0.96914770     0.02900
C1484       C  0.15520434  0.47510273  0.51877306    -0.12300
C1485       C  0.17850979  0.97609379  0.50741436    -0.03300
C1486       C  0.16374074  0.95818641  0.97721168     0.02100
C1487       C  0.10781795  0.98096190  0.95217695     0.09000
N1488       N  0.16882952  0.51882000  0.95227695     0.65300
H1489       H  0.15863849  0.48104032  0.54266020     0.18200
N1490       N  0.17402393  0.93876968  0.96613409     0.75800
H1491       H  0.13384142  0.94843457  0.93945995     0.09800
C1492       C  0.11480091  0.99130300  0.92188377     0.03500
C1493       C  0.09276513  0.99078373  0.90303262    -0.05300
C1494       C  0.06339566  0.97989708  0.91357624    -0.23600
C1495       C  0.05639000  0.96986710  0.94404519     0.12700
C1496       C  0.07865232  0.97060654  0.96310865    -0.12800
N1497       N  0.14416647  0.00206715  0.90975013     0.64400
H1498       H  0.09874046  0.99885785  0.87991035     0.12200
N1499       N  0.02642657  0.95679518  0.95526288     0.61000
H1500       H  0.07276961  0.96170714  0.98595683     0.08400
O1501       O  0.18548945  0.94290286  0.93990319    -0.40400
O1502       O  0.16710635  0.91479606  0.98027772    -0.39600
O1503       O  0.09914750  0.47582762  0.53832173    -0.39600
O1504       O  0.18939846  0.52611892  0.93285626    -0.37300
O1505       O  0.00804378  0.92948089  0.95006201    -0.38200
O1506       O  0.01984014  0.97093366  0.97431672    -0.34400
O1507       O  0.14851137  0.98635396  0.89058736    -0.35800
O1508       O  0.16395637  0.02919384  0.91350637    -0.40100
C1509       C  0.35512628  0.00632882  0.74919760    -0.13800
C1510       C  0.34431760  0.98452670  0.72619540     0.16600
C1511       C  0.35515747  0.96436200  0.72416940     0.02900
C1512       C  0.37559331  0.96536031  0.74590870    -0.12300
C1513       C  0.38586936  0.98668083  0.76952808    -0.03300
C1514       C  0.37589437  0.00771024  0.77067566     0.02100
C1515       C  0.32050230  0.98233179  0.70571871     0.09000
N1516       N  0.34535392  0.94257593  0.70035678     0.65300
H1517       H  0.38322753  0.94930919  0.74447707     0.18200
N1518       N  0.38502243  0.02927055  0.79471433     0.75800
H1519       H  0.34683956  0.02184440  0.75091119     0.09800
C1520       C  0.29017992  0.96488448  0.71403709     0.03500
C1521       C  0.26802210  0.96556896  0.69618495    -0.05300
C1522       C  0.27553491  0.98354597  0.66991865    -0.23600
C1523       C  0.30601067  0.00105272  0.66155422     0.12700
C1524       C  0.32818941  0.00011300  0.67937738    -0.12800
N1525       N  0.28166352  0.94694378  0.74105178     0.64400
H1526       H  0.24481852  0.95193095  0.70289768     0.12200
N1527       N  0.29965765  0.47772255  0.62381851     0.61000
H1528       H  0.33822463  0.48127050  0.66520728     0.08400
O1529       O  0.36831539  0.02395751  0.81763210    -0.40400
O1530       O  0.40725189  0.05520737  0.79092094    -0.39600
O1531       O  0.36156551  0.94767638  0.67706670    -0.39600
O1532       O  0.32369924  0.91648230  0.70503727    -0.37300
O1533       O  0.31467934  0.50208071  0.60951866    -0.38200
O1534       O  0.29294925  0.45325570  0.61090187    -0.34400
O1535       O  0.27687816  0.95699161  0.76534652    -0.35800
O1536       O  0.27416683  0.91959381  0.73936961    -0.40100
C1537       C  0.12496220  0.95994042  0.67504906    -0.13800
C1538       C  0.13150143  0.98076163  0.69874593     0.16600
C1539       C  0.16190588  0.00159545  0.70525950     0.02900
C1540       C  0.18477586  0.00024787  0.68947278    -0.12300
C1541       C  0.17825272  0.97939139  0.66604138    -0.03300
C1542       C  0.14802085  0.95948818  0.65837240     0.02100
C1543       C  0.10699785  0.97868034  0.71869153     0.09000
N1544       N  0.16999285  0.02486969  0.72733324     0.65300
H1545       H  0.20783510  0.01618702  0.69502481     0.18200
N1546       N  0.14036489  0.93759578  0.63488014     0.75800
H1547       H  0.10200684  0.94334380  0.67010721     0.09800
C1548       C  0.08049685  0.97684578  0.70712166     0.03500
C1549       C  0.05878034  0.97589192  0.72730666    -0.05300
C1550       C  0.06335581  0.97768578  0.75906399    -0.23600
C1551       C  0.08917540  0.97780209  0.77046429     0.12700
C1552       C  0.11022753  0.97791831  0.75038542    -0.12800
N1553       N  0.07039092  0.47250710  0.67433563     0.64400
H1554       H  0.03539881  0.47119767  0.71895752     0.12200
N1555       N  0.09480085  0.97823429  0.80246873     0.61000
H1556       H  0.12942173  0.97759705  0.75976881     0.08400
O1557       O  0.13268428  0.94198996  0.60891360    -0.40400
O1558       O  0.13694810  0.91217530  0.64134538    -0.39600
O1559       O  0.18508952  0.02598387  0.75048094    -0.39600
O1560       O  0.16733823  0.04727508  0.72068831    -0.37300
O1561       O  0.11245413  0.00269835  0.81549330    -0.38200
O1562       O  0.08449244  0.95390432  0.81705364    -0.34400
O1563       O  0.05073477  0.44905096  0.66117304    -0.35800
O1564       O  0.08074123  0.49751289  0.66105441    -0.40100
C1565       C  0.35520971  0.82262562  0.99828197    -0.13800
C1566       C  0.34687037  0.83079398  0.97093810     0.16600
C1567       C  0.31656477  0.81449730  0.96158108     0.02900
C1568       C  0.29558330  0.79057645  0.97924331    -0.12300
C1569       C  0.29601225  0.79611065  0.51046577    -0.03300
C1570       C  0.32545790  0.81374866  0.52198294     0.02100
C1571       C  0.37015682  0.85470784  0.95125670     0.09000
N1572       N  0.30652492  0.82218328  0.93439532     0.65300
H1573       H  0.27258925  0.77859737  0.97168831     0.18200
N1574       N  0.33356897  0.80798769  0.55134127     0.75800
H1575       H  0.37831590  0.83391741  0.00523277     0.09800
C1576       C  0.39124976  0.88330336  0.96267485     0.03500
C1577       C  0.41207898  0.90533296  0.94290904    -0.05300
C1578       C  0.41194027  0.89967911  0.91154865    -0.23600
C1579       C  0.39122218  0.87070737  0.90032250     0.12700
C1580       C  0.37129027  0.84853472  0.92029339    -0.12800
N1581       N  0.39124127  0.89073145  0.99406471     0.64400
H1582       H  0.42771539  0.92710064  0.95197677     0.12200
N1583       N  0.38975084  0.86324858  0.86867220     0.61000
H1584       H  0.35632249  0.82653222  0.91139410     0.08400
O1585       O  0.33794673  0.82575169  0.57311659    -0.40400
O1586       O  0.34103943  0.78821564  0.55420412    -0.39600
O1587       O  0.29559590  0.80346976  0.91285884    -0.39600
O1588       O  0.30385995  0.84524005  0.93401900    -0.37300
O1589       O  0.39842641  0.84544484  0.86010854    -0.38200
O1590       O  0.37374369  0.86869526  0.85096373    -0.34400
O1591       O  0.40448289  0.90979022  0.51175528    -0.35800
O1592       O  0.36725873  0.91459521  0.49509811    -0.40100
C1593       C  0.17375896  0.63544528  0.99594808    -0.13800
C1594       C  0.16565180  0.64408740  0.96888658     0.16600
C1595       C  0.17855053  0.67464222  0.96162488     0.02900
C1596       C  0.20041690  0.69615528  0.98065628    -0.12300
C1597       C  0.20433350  0.69787246  0.50728370    -0.03300
C1598       C  0.17540100  0.67706376  0.51812882     0.02100
C1599       C  0.14273978  0.62127061  0.94879833     0.09000
N1600       N  0.16969453  0.68404506  0.93482292     0.65300
H1601       H  0.21054885  0.71958182  0.97437531     0.18200
N1602       N  0.16624568  0.67904111  0.54833822     0.75800
H1603       H  0.16341947  0.61191002  0.00182067     0.09800
C1604       C  0.14973645  0.60522286  0.92761362     0.03500
C1605       C  0.12744210  0.58475291  0.90791920    -0.05300
C1606       C  0.09837969  0.58085079  0.90821193    -0.23600
C1607       C  0.09161502  0.59673742  0.93009923     0.12700
C1608       C  0.11372201  0.61661401  0.95013411    -0.12800
N1609       N  0.17983618  0.61125527  0.92425572     0.64400
H1610       H  0.13347161  0.57329956  0.89109551     0.12200
N1611       N  0.06225464  0.59241658  0.93312005     0.61000
H1612       H  0.10827981  0.62876179  0.96671144     0.08400
O1613       O  0.16360690  0.65997499  0.56801944    -0.40400
O1614       O  0.15503563  0.69549471  0.55345296    -0.39600
O1615       O  0.14970520  0.69128843  0.93650670    -0.39600
O1616       O  0.18391196  0.68805882  0.91023797    -0.37300
O1617       O  0.04261942  0.56899776  0.94628244    -0.38200
O1618       O  0.05875835  0.61493616  0.93139783    -0.34400
O1619       O  0.14741882  0.57520708  0.47764237    -0.35800
O1620       O  0.18187195  0.60108113  0.44396485    -0.40100
C1621       C  0.33996224  0.81028263  0.71015498    -0.13800
C1622       C  0.35115339  0.83933755  0.69842210     0.16600
C1623       C  0.34116870  0.84304212  0.66970848     0.02900
C1624       C  0.31910043  0.81798791  0.65409469    -0.12300
C1625       C  0.30659074  0.78907182  0.66665162    -0.03300
C1626       C  0.31778943  0.78523505  0.69466860     0.02100
C1627       C  0.37210869  0.86522121  0.71739483     0.09000
N1628       N  0.35165185  0.87217203  0.65700591     0.65300
H1629       H  0.31075494  0.82143203  0.63268415     0.18200
N1630       N  0.30711895  0.75612271  0.70760620     0.75800
H1631       H  0.34818258  0.80708876  0.73177131     0.09800
C1632       C  0.36379422  0.86875919  0.74701860     0.03500
C1633       C  0.38497595  0.89052042  0.76636968    -0.05300
C1634       C  0.41457630  0.90956935  0.75671581    -0.23600
C1635       C  0.42249982  0.90726402  0.72641155     0.12700
C1636       C  0.40132498  0.88491269  0.70713003    -0.12800
N1637       N  0.33383931  0.85025618  0.75782459     0.64400
H1638       H  0.37816094  0.89239358  0.78921909     0.12200
N1639       N  0.45217035  0.92641981  0.71530112     0.61000
H1640       H  0.40804539  0.88224204  0.68453061     0.08400
O1641       O  0.28977875  0.74808581  0.73031345    -0.40400
O1642       O  0.31948069  0.74117158  0.70033702    -0.39600
O1643       O  0.37316871  0.88255018  0.63837172    -0.39600
O1644       O  0.33489649  0.88347604  0.65794063    -0.37300
O1645       O  0.47092406  0.91749333  0.71564103    -0.38200
O1646       O  0.45793335  0.94971457  0.70045647    -0.34400
O1647       O  0.32855355  0.83109482  0.77842613    -0.35800
O1648       O  0.31397085  0.85667565  0.75079836    -0.40100
C1649       C  0.13154543  0.60083391  0.72841440    -0.13800
C1650       C  0.14542059  0.63139776  0.73549419     0.16600
C1651       C  0.13765585  0.64063249  0.76250528     0.02900
C1652       C  0.11599222  0.61917420  0.78191091    -0.12300
C1653       C  0.10177323  0.58848188  0.77472426    -0.03300
C1654       C  0.10968845  0.57938338  0.74771696     0.02100
C1655       C  0.16777796  0.65333231  0.71423386     0.09000
N1656       N  0.15150053  0.67167801  0.77043376     0.65300
H1657       H  0.11042457  0.62650297  0.80279038     0.18200
N1658       N  0.09484370  0.54858739  0.73897516     0.75800
H1659       H  0.13734149  0.59369414  0.70755059     0.09800
C1660       C  0.19851932  0.66477967  0.71911232     0.03500
C1661       C  0.21932316  0.68618210  0.69908098    -0.05300
C1662       C  0.20996876  0.69632159  0.67384247    -0.23600
C1663       C  0.17899943  0.68452561  0.66881326     0.12700
C1664       C  0.15817789  0.66295677  0.68893410    -0.12800
N1665       N  0.20886123  0.65447794  0.74406449     0.64400
H1666       H  0.24284973  0.69466644  0.70311990     0.12200
N1667       N  0.16835704  0.69555403  0.64476091     0.61000
H1668       H  0.13454934  0.65434502  0.68535462     0.08100
O1669       O  0.11002559  0.53624946  0.73283130    -0.40400
O1670       O  0.06708134  0.53495858  0.73355714    -0.39600
O1671       O  0.13856364  0.68624380  0.76380348    -0.39600
O1672       O  0.17293600  0.68259508  0.78921045    -0.37300
O1673       O  0.14965158  0.67740841  0.62579280    -0.38200
O1674       O  0.17288362  0.72200124  0.64611212    -0.34400
O1675       O  0.20881245  0.63001502  0.74180328    -0.35800
O1676       O  0.22211046  0.67174897  0.76621849    -0.40100
C1677       C  0.74196646  0.21344101  0.15432187     0.80800
N1678       N  0.73985127  0.21280073  0.12321332    -0.77500
C1679       C  0.76324147  0.23352425  0.10613724     0.83200
N1680       N  0.78833960  0.25480532  0.12020479    -0.77400
C1681       C  0.79084393  0.25537787  0.15092145     0.83300
N1682       N  0.76760832  0.23478447  0.16779584    -0.79200
C1683       C  0.73719493  0.21501536  0.02587676     0.80800
N1684       N  0.73860715  0.21258168  0.05668696    -0.77500
C1685       C  0.76157915  0.23487553  0.07270867     0.83200
N1686       N  0.78310257  0.25949828  0.05778605    -0.77400
C1687       C  0.78164156  0.26217753  0.02714240     0.83300
N1688       N  0.75854129  0.23995775  0.01149226    -0.79200
C1689       C  0.74110521  0.46412193  0.15056923     0.80800
N1690       N  0.74248590  0.46664913  0.11958930    -0.77500
C1691       C  0.71981731  0.46658686  0.10368761     0.83200
N1692       N  0.69575459  0.46414194  0.11882366    -0.77400
C1693       C  0.69379131  0.46129623  0.14956068     0.83300
N1694       N  0.71654983  0.46136384  0.16530695    -0.79200
C1695       C  0.74429248  0.47478872  0.02258830     0.80800
N1696       N  0.71949714  0.47212895  0.00855676    -0.77500
C1697       C  0.69557517  0.46832452  0.02508559     0.83200
N1698       N  0.69640186  0.46708000  0.05583620    -0.77400
C1699       C  0.72053498  0.46896194  0.07026406     0.83300
N1700       N  0.74453978  0.47287881  0.05364886    -0.79200
C1701       C  0.98545213  0.23652204  0.15043401     0.80800
N1702       N  0.98356780  0.23701333  0.11942573    -0.77500
C1703       C  0.98147485  0.21389661  0.10248255     0.83200
N1704       N  0.98112480  0.19019411  0.11655988    -0.77400
C1705       C  0.98274365  0.18923769  0.14730742     0.83300
N1706       N  0.98477935  0.21242316  0.16397458    -0.79200
C1707       C  0.97008443  0.23173544  0.02293808     0.80800
N1708       N  0.96862807  0.20775453  0.00812100    -0.77500
C1709       C  0.97186960  0.18663902  0.02346761     0.83200
N1710       N  0.97666590  0.18954260  0.05388532    -0.77400
C1711       C  0.97790744  0.21297765  0.06920029     0.83300
N1712       N  0.97470918  0.23416776  0.05372370    -0.79200
O1713       O  0.92163752  0.00189949  0.30009992    -0.87600
C1714       C  0.57495139  0.06716732  0.38273376     1.12400
O1715       O  0.95882728  0.48002164  0.33620509    -1.35400
O1716       O  0.55764276  0.07292959  0.30548095    -0.89100
O1717       O  0.89956196  0.45395597  0.30042450    -0.89700
O1718       O  0.96156881  0.45045631  0.27191706    -0.78600
O1719       O  0.98849840  0.03879507  0.30816730    -1.00700
C1720       C  0.54484771  0.48152266  0.28180797     1.22500
O1721       O  0.99119593  0.44987162  0.33679863    -1.35500
Mn1722     Mn  0.98962093  0.48037789  0.36985760     1.82100
O1723       O  0.52186820  0.48168914  0.27281249    -0.77600
O1724       O  0.58156081  0.04671086  0.30461302    -0.87000
C1725       C  0.54319422  0.48353722  0.39355961     1.13600
C1726       C  0.57807708  0.06819516  0.29549825     1.08300
O1727       O  0.95791537  0.44850468  0.40017952    -0.78600
O1728       O  0.52042511  0.01169431  0.33745925    -1.32300
O1729       O  0.93166926  0.42040850  0.36401158    -0.97800
C1730       C  0.99372016  0.39502605  0.29244723     1.07000
Mn1731     Mn  0.56260081  0.01374125  0.33836222     1.48600
O1732       O  0.96840327  0.39019723  0.30199218    -0.87000
Mn1733     Mn  0.91704042  0.43907482  0.33490727     1.49600
O1734       O  0.91931694  0.00085300  0.36820716    -0.90900
C1735       C  0.98984513  0.03424434  0.28107869     1.20200
C1736       C  0.90181992  0.47668606  0.38032082     1.12300
Mn1737     Mn  0.99109717  0.48136584  0.30385989     1.81000
O1738       O  0.54803099  0.48367667  0.36635901    -0.96000
Mn1739     Mn  0.95350082  0.01792947  0.33549231     1.49300
C1740       C  0.90305309  0.47894045  0.29116197     1.08800
Mn1741     Mn  0.53118720  0.44954221  0.33818497     1.49900
C1742       C  0.99209224  0.39446278  0.38130242     1.11700
O1743       O  0.93356318  0.42159796  0.30667471    -1.01800
O1744       O  0.58004459  0.04687215  0.37272292    -0.91500
C1745       C  0.93880581  0.42648075  0.27951279     1.23000
O1746       O  0.54924191  0.48282499  0.30921551    -1.02200
O1747       O  0.55399113  0.07089975  0.37262719    -0.89600
O1748       O  0.51666837  0.41686144  0.37261412    -0.89200
O1749       O  0.89731462  0.45215785  0.36872692    -0.89200
Mn1750     Mn  0.52273671  0.05415929  0.33765533     1.47900
O1751       O  0.51915448  0.48216415  0.40139731    -0.77700
C1752       C  0.93516456  0.42487238  0.39139695     1.16000
O1753       O  0.99076885  0.01116623  0.27378614    -0.76400
O1754       O  0.98574301  0.01034540  0.40171088    -0.76100
Mn1755     Mn  0.95208532  0.40692430  0.33583858     1.51100
O1756       O  0.51850785  0.41665863  0.30427450    -0.88400
O1757       O  0.98565583  0.03781050  0.36564830    -0.95900
O1758       O  0.96715690  0.38944547  0.37027851    -0.91000
C1759       C  0.98425524  0.03283558  0.39301255     1.13800
C1760       C  0.47653838  0.09664721  0.42703807    -0.13800
C1761       C  0.98113396  0.09510387  0.45660071     0.16600
C1762       C  0.99022212  0.07488151  0.46636939     0.02900
C1763       C  0.98987817  0.05380774  0.44573001    -0.12300
C1764       C  0.98117368  0.05311562  0.41508083    -0.03300
C1765       C  0.47577660  0.07594222  0.40596743     0.02100
C1766       C  0.98183200  0.11840947  0.47668404     0.09000
N1767       N  0.00115209  0.07652092  0.49667862     0.65300
H1768       H  0.99772090  0.03895203  0.45332965     0.18200
N1769       N  0.46596094  0.07713931  0.37575562     0.75800
H1770       H  0.46967179  0.11244069  0.41984480     0.09800
C1771       C  0.50690238  0.15160692  0.47099045     0.03500
C1772       C  0.50185734  0.15902031  0.01404901    -0.05300
C1773       C  0.97166289  0.16133858  0.00734091    -0.23600
C1774       C  0.95715004  0.13232640  0.51536825     0.12700
C1775       C  0.96003670  0.11027615  0.49945064    -0.12800
N1776       N  0.53446425  0.13956698  0.99879920     0.64400
H1777       H  0.52054537  0.17680573  0.02617888     0.12200
N1778       N  0.93277583  0.12322629  0.53618350     0.61000
H1779       H  0.94432994  0.08687504  0.50368980     0.08400
O1780       O  0.48045908  0.10128806  0.36106331    -0.40400
O1781       O  0.43871151  0.06030887  0.36919470    -0.39600
O1782       O  0.98457629  0.05770457  0.51645154    -0.39600
O1783       O  0.02595182  0.09864584  0.50456318    -0.37300
O1784       O  0.90939268  0.12314317  0.52750544    -0.38200
O1785       O  0.93221831  0.10992749  0.56056415    -0.34400
O1786       O  0.55201531  0.15249713  0.97677304    -0.35800
O1787       O  0.55492364  0.16443141  0.45518452    -0.40100
C1788       C  0.01401130  0.34918460  0.43354534    -0.13800
C1789       C  0.98710252  0.33144888  0.44914429     0.16600
C1790       C  0.96272543  0.33597411  0.44412279     0.02900
C1791       C  0.96508934  0.35718075  0.42263024    -0.12300
C1792       C  0.99162372  0.37425124  0.40585300    -0.03300
C1793       C  0.01656848  0.37057907  0.41213751     0.02100
C1794       C  0.98416879  0.30677710  0.46875701     0.09000
N1795       N  0.93535560  0.31903065  0.46057287     0.65300
H1796       H  0.94601958  0.36010336  0.41897547     0.18200
N1797       N  0.04417355  0.38719659  0.39598257     0.75800
H1798       H  0.03279549  0.34576380  0.43733633     0.09800
C1799       C  0.97206617  0.27759051  0.45695157     0.03500
C1800       C  0.97024050  0.25458768  0.47538061    -0.05300
C1801       C  0.96754115  0.25514231  0.00495128    -0.23600
C1802       C  0.96979377  0.28137182  0.01819131     0.12700
C1803       C  0.99459321  0.31257535  0.49891808    -0.12800
N1804       N  0.96240070  0.27120772  0.42591286     0.64400
H1805       H  0.96068701  0.23227156  0.46577446     0.12200
N1806       N  0.44923235  0.26932310  0.04511681     0.61000
H1807       H  0.50683012  0.33701625  0.50785198     0.08400
O1808       O  0.04902321  0.37584199  0.37272550    -0.40400
O1809       O  0.06552764  0.41027097  0.40803511    -0.39600
O1810       O  0.90754698  0.31286540  0.97486429    -0.39600
O1811       O  0.89650071  0.28642052  0.93310243    -0.37300
O1812       O  0.46698778  0.28764710  0.06460429    -0.38200
O1813       O  0.42172873  0.25367083  0.05136355    -0.34400
O1814       O  0.98080991  0.27374351  0.40555820    -0.35800
O1815       O  0.93478380  0.25781821  0.41980288    -0.40100
C1816       C  0.48752531  0.12119213  0.16875727    -0.13800
C1817       C  0.97690642  0.11367432  0.19635738     0.16600
C1818       C  0.96600900  0.13163003  0.20892650     0.02900
C1819       C  0.96806322  0.15578936  0.19241773    -0.12300
C1820       C  0.98024215  0.16243726  0.16295461    -0.03300
C1821       C  0.48958319  0.14545102  0.15217292     0.02100
C1822       C  0.98137069  0.09271970  0.21614064     0.09000
N1823       N  0.95292827  0.12574464  0.23868123     0.65300
H1824       H  0.95981375  0.16927149  0.20275659     0.18200
N1825       N  0.50312164  0.15164293  0.12264175     0.75800
H1826       H  0.49645777  0.10801976  0.15900868     0.09800
C1827       C  0.97016670  0.06215357  0.20912368     0.03500
C1828       C  0.97406365  0.04353689  0.22999247    -0.05300
C1829       C  0.98914757  0.05498976  0.25784080    -0.23600
C1830       C  0.00217778  0.08612623  0.26347382     0.12700
C1831       C  0.99819432  0.10440266  0.24276570    -0.12800
N1832       N  0.95368974  0.04941073  0.18169511     0.64400
H1833       H  0.96425758  0.01988676  0.22494277     0.12200
N1834       N  0.02052433  0.10015402  0.28951303     0.61000
H1835       H  0.00839577  0.12812991  0.24764608     0.08400
O1836       O  0.48872659  0.13526200  0.10031767    -0.40400
O1837       O  0.53086559  0.16970024  0.12004972    -0.39600
O1838       O  0.96575142  0.14472072  0.25969368    -0.39600
O1839       O  0.92592300  0.10554982  0.24194990    -0.37300
O1840       O  0.04831886  0.11701544  0.28556409    -0.38200
O1841       O  0.00863876  0.10443018  0.31258514    -0.34400
O1842       O  0.96598632  0.04371476  0.15985950    -0.35800
O1843       O  0.92571157  0.03884439  0.18142813    -0.40100
C1844       C  0.52004243  0.35494063  0.23939440    -0.13800
C1845       C  0.99134741  0.33381121  0.22339740     0.16600
C1846       C  0.96621436  0.33712771  0.22872279     0.02900
C1847       C  0.96792346  0.35806925  0.25028170    -0.12300
C1848       C  0.99412100  0.37541383  0.26757520    -0.03300
C1849       C  0.52079651  0.37434950  0.26221764     0.02100
C1850       C  0.98956736  0.30927914  0.20406002     0.09000
N1851       N  0.93809743  0.31770867  0.21438568     0.65300
H1852       H  0.94816246  0.35979821  0.25434508     0.18200
N1853       N  0.54650417  0.38841430  0.28162536     0.75800
H1854       H  0.53918061  0.35170854  0.23670182     0.09800
C1855       C  0.48842688  0.31184374  0.17059470     0.03500
C1856       C  0.48601784  0.28720054  0.15425814    -0.05300
C1857       C  0.98710021  0.26147922  0.16939056    -0.23600
C1858       C  0.99178393  0.26308724  0.20142101     0.12700
C1859       C  0.99280618  0.28668322  0.21821099    -0.12800
N1860       N  0.48807968  0.33574447  0.15427909     0.64400
H1861       H  0.48274930  0.28645899  0.12994508     0.12200
N1862       N  0.99595712  0.24129090  0.21750399     0.61000
H1863       H  0.99629871  0.28743598  0.24260310     0.08400
O1864       O  0.57141146  0.40777085  0.27069496    -0.40400
O1865       O  0.54572853  0.37698633  0.30732094    -0.39600
O1866       O  0.92201356  0.29132726  0.22429266    -0.39600
O1867       O  0.92682896  0.32855110  0.19643804    -0.37300
O1868       O  0.02210193  0.24566047  0.22132816    -0.38200
O1869       O  0.97463008  0.22126542  0.23288878    -0.34400
O1870       O  0.51152976  0.36117574  0.15324643    -0.35800
O1871       O  0.46665643  0.33009588  0.13644915    -0.40100
C1872       C  0.81374431  0.46525537  0.49750853    -0.13800
C1873       C  0.82211720  0.48136073  0.47003184     0.16600
C1874       C  0.80724972  0.49664448  0.46058825     0.02900
C1875       C  0.79219947  0.47363512  0.01739036    -0.12300
C1876       C  0.77065760  0.47937503  0.00414459    -0.03300
C1877       C  0.79013057  0.46342301  0.51514421     0.02100
C1878       C  0.84386669  0.47923182  0.44966282     0.09000
N1879       N  0.83930460  0.47300771  0.01559010     0.65300
H1880       H  0.79019085  0.46695728  0.04100511     0.18200
N1881       N  0.77659907  0.93460011  0.53666337     0.75800
H1882       H  0.82098264  0.94740414  0.49840238     0.09800
C1883       C  0.87371386  0.50268665  0.44702036     0.03500
C1884       C  0.89259767  0.50085017  0.42520952    -0.05300
C1885       C  0.88218508  0.47591646  0.40560421    -0.23600
C1886       C  0.85268184  0.45164642  0.40964729     0.12700
C1887       C  0.83382818  0.45363118  0.43138249    -0.12800
N1888       N  0.88521867  0.52847727  0.46632335     0.64400
H1889       H  0.91525686  0.51894576  0.42358919     0.12200
N1890       N  0.84102412  0.42529115  0.39116230     0.61000
H1891       H  0.81110100  0.43545903  0.43351892     0.08400
O1892       O  0.79617211  0.93582167  0.55483901    -0.40400
O1893       O  0.75091779  0.91146017  0.53638656    -0.39600
O1894       O  0.86493571  0.49556225  0.01986278    -0.39600
O1895       O  0.82797834  0.54081857  0.43219974    -0.37300
O1896       O  0.82293553  0.92055017  0.36517965    -0.38200
O1897       O  0.84167904  0.90229677  0.39775292    -0.34400
O1898       O  0.89890152  0.52917646  0.49046190    -0.35800
O1899       O  0.88766928  0.55252603  0.45610261    -0.40100
C1900       C  0.64933537  0.46874307  0.45665236    -0.13800
C1901       C  0.63245715  0.47983356  0.47094947     0.16600
C1902       C  0.63762726  0.98338621  0.49965018     0.02900
C1903       C  0.66266996  0.98844758  0.01987361    -0.12300
C1904       C  0.66958617  0.46749783  0.01003177    -0.03300
C1905       C  0.67177542  0.46643744  0.47236015     0.02100
C1906       C  0.60992579  0.48333398  0.45271931     0.09000
N1907       N  0.62860521  0.00368522  0.51082280     0.65300
H1908       H  0.67230093  0.00043701  0.04091296     0.18200
N1909       N  0.68857977  0.45567317  0.45618719     0.75800
H1910       H  0.64515706  0.46187486  0.43306253     0.09800
C1911       C  0.61759698  0.49795030  0.42415176     0.03500
C1912       C  0.59553626  0.49819301  0.40588366    -0.05300
C1913       C  0.56561582  0.48474990  0.41557119    -0.23600
C1914       C  0.55799784  0.47121447  0.44464403     0.12700
C1915       C  0.58003721  0.47026722  0.46277476    -0.12800
N1916       N  0.64781025  0.51283887  0.41332089     0.64400
H1917       H  0.60195393  0.50908286  0.38389193     0.12200
N1918       N  0.52779231  0.45685231  0.45534515     0.61000
H1919       H  0.57354256  0.45843594  0.48422855     0.08400
O1920       O  0.70873942  0.47280495  0.43777266    -0.40400
O1921       O  0.67983155  0.42797439  0.45619596    -0.39600
O1922       O  0.61704593  0.00737699  0.03898598    -0.39600
O1923       O  0.64580979  0.03148853  0.50713008    -0.37300
O1924       O  0.51099528  0.42897122  0.45165622    -0.38200
O1925       O  0.51958968  0.47088373  0.47277334    -0.34400
O1926       O  0.65422109  0.50378125  0.38927768    -0.35800
O1927       O  0.66674833  0.53774513  0.42469500    -0.40100
C1928       C  0.85346661  0.49820625  0.24281667    -0.13800
C1929       C  0.83835211  0.47238783  0.22478037     0.16600
C1930       C  0.84637339  0.45005862  0.22672407     0.02900
C1931       C  0.86811894  0.45297744  0.24779292    -0.12300
C1932       C  0.88275720  0.47840814  0.26671986    -0.03300
C1933       C  0.87583249  0.50164448  0.26333633     0.02100
C1934       C  0.81312554  0.46846170  0.20537700     0.09000
N1935       N  0.83232107  0.42412876  0.20765790     0.65300
H1936       H  0.87337253  0.43515224  0.24946735     0.18200
N1937       N  0.89027075  0.52828941  0.28143335     0.75800
H1938       H  0.84757467  0.51558271  0.24123226     0.09800
C1939       C  0.78525507  0.46064350  0.21838284     0.03500
C1940       C  0.76220870  0.45898597  0.20011223    -0.05300
C1941       C  0.76622717  0.46503908  0.16858133    -0.23600
C1942       C  0.79428383  0.47235297  0.15552082     0.12700
C1943       C  0.81730751  0.47393474  0.17398789    -0.12800
N1944       N  0.78005188  0.45427935  0.25024252     0.64400
H1945       H  0.74111318  0.45303646  0.21089163     0.12200
N1946       N  0.79956832  0.98319922  0.12716730     0.61000
H1947       H  0.83725779  0.98256847  0.16724135     0.08400
O1948       O  0.87677081  0.53125634  0.30396816    -0.40400
O1949       O  0.91431156  0.55053203  0.27215659    -0.39600
O1950       O  0.84216214  0.42536452  0.18105330    -0.39600
O1951       O  0.81326963  0.39912182  0.21874288    -0.37300
O1952       O  0.80776356  0.01052292  0.12314687    -0.38200
O1953       O  0.80366337  0.96879605  0.10625863    -0.34400
O1954       O  0.78123996  0.47401286  0.26817225    -0.35800
O1955       O  0.76996488  0.42776431  0.25965201    -0.40100
C1956       C  0.63291502  0.44503517  0.20792188    -0.13800
C1957       C  0.62313179  0.46486372  0.19859143     0.16600
C1958       C  0.63540217  0.48196405  0.17175701     0.02900
C1959       C  0.65713826  0.47904714  0.15523794    -0.12300
C1960       C  0.66810983  0.46052866  0.16565550    -0.03300
C1961       C  0.65535733  0.44299006  0.19197920     0.02100
C1962       C  0.60238546  0.46907682  0.21897627     0.09000
N1963       N  0.62815860  0.50424488  0.16238305     0.65300
H1964       H  0.66696841  0.49291295  0.13531598     0.18200
N1965       N  0.66469280  0.42273138  0.20267789     0.75800
H1966       H  0.62355332  0.43155169  0.22816361     0.09800
C1967       C  0.57506432  0.46634546  0.20888418     0.03500
C1968       C  0.55700483  0.47115380  0.22947311    -0.05300
C1969       C  0.56520362  0.47800022  0.26030040    -0.23600
C1970       C  0.59227987  0.48009450  0.27033166     0.12700
C1971       C  0.61054430  0.47600382  0.24969634    -0.12800
N1972       N  0.56390435  0.95444988  0.17882141     0.64400
H1973       H  0.53535094  0.96639904  0.22166395     0.12200
N1974       N  0.60153747  0.48600984  0.30151684     0.61000
H1975       H  0.63140759  0.47819064  0.25786336     0.08400
O1976       O  0.65278936  0.39657235  0.19174311    -0.40400
O1977       O  0.68031999  0.42890733  0.22659511    -0.39600
O1978       O  0.63368588  0.52579995  0.17998721    -0.39600
O1979       O  0.62170843  0.50554797  0.13484850    -0.37300
O1980       O  0.61619826  0.51269728  0.31101450    -0.38200
O1981       O  0.59605408  0.46456967  0.31930862    -0.34400
O1982       O  0.55106717  0.92698872  0.17184734    -0.35800
O1983       O  0.56184998  0.97264612  0.16107208    -0.40100
C1984       C  0.84922137  0.33629823  0.50244948    -0.13800
C1985       C  0.84163927  0.34390529  0.47436159     0.16600
C1986       C  0.81152999  0.32824229  0.46468237     0.02900
C1987       C  0.78993086  0.30458724  0.48223729    -0.12300
C1988       C  0.80369993  0.28964789  0.01076158    -0.03300
C1989       C  0.83456740  0.30492729  0.01774617     0.02100
C1990       C  0.86575427  0.36522525  0.45359406     0.09000
N1991       N  0.80251465  0.33617897  0.43701158     0.65300
H1992       H  0.76707250  0.29280304  0.47419303     0.18200
N1993       N  0.84624217  0.29401405  0.04085423     0.75800
H1994       H  0.87229277  0.34765970  0.50979090     0.09800
C1995       C  0.88588719  0.39522229  0.46183689     0.03500
C1996       C  0.90905838  0.41403432  0.44183241    -0.05300
C1997       C  0.91206576  0.40367448  0.41309011    -0.23600
C1998       C  0.89169827  0.37352494  0.40493098     0.12700
C1999       C  0.86926988  0.35463919  0.42533260    -0.12800
N2000       N  0.88210134  0.40732819  0.48968871     0.64400
H2001       H  0.92389669  0.43707683  0.44828145     0.12200
N2002       N  0.89328806  0.36156470  0.37600066     0.61000
H2003       H  0.85441547  0.33158052  0.41897950     0.08400
O2004       O  0.85430194  0.30741226  0.06615903    -0.40400
O2005       O  0.85304145  0.27430891  0.03424279    -0.39600
O2006       O  0.79555623  0.31909713  0.41413154    -0.39600
O2007       O  0.79581880  0.35663231  0.43739645    -0.37300
O2008       O  0.90365180  0.34399631  0.37451184    -0.38200
O2009       O  0.87817118  0.36274333  0.35393609    -0.34400
O2010       O  0.91330261  0.40078098  0.01212366    -0.35800
O2011       O  0.87768507  0.41148822  0.00668994    -0.40100
C2012       C  0.65943098  0.14960555  0.49939180    -0.13800
C2013       C  0.66122671  0.15316433  0.46764160     0.16600
C2014       C  0.68475883  0.17963243  0.45499002     0.02900
C2015       C  0.70625997  0.20167079  0.47400921    -0.12300
C2016       C  0.71241803  0.19157459  0.00755740    -0.03300
C2017       C  0.69884945  0.16067747  0.01446513     0.02100
C2018       C  0.63758644  0.13000401  0.44793331     0.09000
N2019       N  0.68722267  0.18444637  0.42274241     0.65300
H2020       H  0.72404078  0.22160876  0.46341316     0.18200
N2021       N  0.70735311  0.15038264  0.04082212     0.75800
H2022       H  0.64090024  0.12985478  0.50939946     0.09800
C2023       C  0.63305664  0.10070298  0.44578640     0.03500
C2024       C  0.61223111  0.08028508  0.42487036    -0.05300
C2025       C  0.59506637  0.08835621  0.40641238    -0.23600
C2026       C  0.59872749  0.11742545  0.40980040     0.12700
C2027       C  0.61992862  0.13783637  0.43026635    -0.12800
N2028       N  0.64958321  0.09143821  0.46456843     0.64400
H2029       H  0.60954431  0.05813994  0.42308119     0.12200
N2030       N  0.58209672  0.12720414  0.39176272     0.61000
H2031       H  0.62282904  0.16005502  0.43215539     0.08400
O2032       O  0.72707814  0.14283929  0.03851025    -0.40400
O2033       O  0.69115489  0.14311037  0.06436394    -0.39600
O2034       O  0.68011249  0.20244078  0.41107938    -0.39600
O2035       O  0.70165122  0.17540138  0.40705710    -0.37300
O2036       O  0.55783572  0.12417430  0.40189574    -0.38200
O2037       O  0.59408442  0.14340382  0.36860003    -0.34400
O2038       O  0.68350499  0.09100695  0.94498057    -0.35800
O2039       O  0.69861731  0.12624156  0.91052778    -0.40100
C2040       C  0.84992641  0.30203594  0.20953766    -0.13800
C2041       C  0.86026536  0.33108598  0.19811513     0.16600
C2042       C  0.85048219  0.33459653  0.16918136     0.02900
C2043       C  0.82902512  0.30935712  0.15332756    -0.12300
C2044       C  0.81698265  0.28049967  0.16588427    -0.03300
C2045       C  0.82833641  0.27681858  0.19378948     0.02100
C2046       C  0.87967542  0.35714349  0.21771956     0.09000
N2047       N  0.86031823  0.36365661  0.15659133     0.65300
H2048       H  0.82059622  0.31256949  0.13187292     0.18200
N2049       N  0.81839575  0.24766164  0.20626136     0.75800
H2050       H  0.85824503  0.29897870  0.23112565     0.09800
C2051       C  0.87057478  0.35903685  0.24754402     0.03500
C2052       C  0.89004200  0.38212983  0.26681335    -0.05300
C2053       C  0.91866082  0.40403410  0.25698806    -0.23600
C2054       C  0.92748171  0.40281734  0.22675525     0.12700
C2055       C  0.90804432  0.37929365  0.20749630    -0.12800
N2056       N  0.84147010  0.33766671  0.25860566     0.64400
H2057       H  0.88258204  0.38287621  0.28969341     0.12200
N2058       N  0.95648814  0.42434048  0.21569300     0.61000
H2059       H  0.91554536  0.37781417  0.18488768     0.08400
O2060       O  0.80390913  0.24012748  0.23096403    -0.40400
O2061       O  0.82851629  0.23173353  0.19560410    -0.39600
O2062       O  0.88166090  0.37445134  0.13773863    -0.39600
O2063       O  0.84325043  0.37457253  0.15806113    -0.37300
O2064       O  0.97745832  0.41844090  0.21652122    -0.38200
O2065       O  0.95965979  0.44647046  0.20030125    -0.34400
O2066       O  0.83889955  0.32011016  0.28000111    -0.35800
O2067       O  0.81905750  0.33973987  0.25063889    -0.40100
C2068       C  0.63040432  0.10081284  0.22756441    -0.13800
C2069       C  0.64657694  0.13131521  0.23529242     0.16600
C2070       C  0.63938639  0.14100855  0.26250192     0.02900
C2071       C  0.61613354  0.12016886  0.28114823    -0.12300
C2072       C  0.59997463  0.08964237  0.27338404    -0.03300
C2073       C  0.60730512  0.07993193  0.24633281     0.02100
C2074       C  0.67106652  0.15233201  0.21473333     0.09000
N2075       N  0.65540528  0.17185112  0.27151266     0.65300
H2076       H  0.61107530  0.12778785  0.30219605     0.18200
N2077       N  0.59121429  0.04907350  0.23736875     0.75800
H2078       H  0.63582355  0.09318266  0.20673599     0.09800
C2079       C  0.70128227  0.16701865  0.22401327     0.03500
C2080       C  0.72368562  0.18669848  0.20393291    -0.05300
C2081       C  0.71685759  0.19184292  0.17419143    -0.23600
C2082       C  0.68650728  0.17684158  0.16489706     0.12700
C2083       C  0.66402982  0.15721104  0.18509754    -0.12800
N2084       N  0.70978514  0.16114383  0.25318824     0.64400
H2085       H  0.74658596  0.19731804  0.21145092     0.12200
N2086       N  0.67785883  0.18217239  0.13563716     0.61000
H2087       H  0.64096604  0.14612810  0.17782058     0.08100
O2088       O  0.60524898  0.03665596  0.22732990    -0.40400
O2089       O  0.56299263  0.03539942  0.23576814    -0.39600
O2090       O  0.65148742  0.19084166  0.25710516    -0.39600
O2091       O  0.66888343  0.17902919  0.29683431    -0.37300
O2092       O  0.66753875  0.16153507  0.11594313    -0.38200
O2093       O  0.67490142  0.20484682  0.13174593    -0.34400
O2094       O  0.70463355  0.13503998  0.25943467    -0.35800
O2095       O  0.72683833  0.18271470  0.27033823    -0.40100
C2096       C  0.73047310  0.22052082  0.65301349     0.80800
N2097       N  0.72887316  0.22061351  0.62194394    -0.77500
C2098       C  0.75179037  0.24292258  0.60570568     0.83200
N2099       N  0.77578205  0.26496043  0.62064939    -0.77400
C2100       C  0.77753231  0.26490278  0.65147688     0.83300
N2101       N  0.75481862  0.24261928  0.66740938    -0.79200
C2102       C  0.72883623  0.22274289  0.52479323     0.80800
N2103       N  0.72891025  0.22141633  0.55581984    -0.77500
C2104       C  0.75128073  0.24400668  0.57215583     0.83200
N2105       N  0.77372251  0.26800996  0.55733917    -0.77400
C2106       C  0.77382915  0.26968078  0.52644231     0.83300
N2107       N  0.75130857  0.24704518  0.51053442    -0.79200
C2108       C  0.74918982  0.48456399  0.64925155     0.80800
N2109       N  0.74870044  0.48149643  0.61839167    -0.77500
C2110       C  0.72472632  0.47787916  0.60187459     0.83200
N2111       N  0.70096598  0.47708336  0.61645041    -0.77400
C2112       C  0.70125732  0.48013702  0.64728857     0.83300
N2113       N  0.72544205  0.48397134  0.66333344    -0.79200
C2114       C  0.74869744  0.47602123  0.52224941     0.80800
N2115       N  0.72558076  0.47512775  0.50639211    -0.77500
C2116       C  0.70188863  0.47414025  0.52102061     0.83200
N2117       N  0.70182172  0.47467492  0.55201382    -0.77400
C2118       C  0.72479360  0.47579877  0.56828896     0.83300
N2119       N  0.74825818  0.47644146  0.55331551    -0.79200
C2120       C  0.96594580  0.22887326  0.65062999     0.80800
N2121       N  0.96897692  0.23063835  0.61976362    -0.77500
C2122       C  0.96971950  0.20834650  0.60393273     0.83200
N2123       N  0.96796081  0.18451628  0.61907334    -0.77400
C2124       C  0.96538526  0.18260931  0.64986429     0.83300
N2125       N  0.96419054  0.20482270  0.66550832    -0.79200
C2126       C  0.97847391  0.23469545  0.52381257     0.80800
N2127       N  0.97827809  0.21135314  0.50914921    -0.77500
C2128       C  0.97491136  0.18713968  0.52482318     0.83200
N2129       N  0.97202349  0.18637405  0.55554950    -0.77400
C2130       C  0.97244000  0.20962180  0.57060718     0.83300
N2131       N  0.97558649  0.23376099  0.55471109    -0.79200
O2132       O  0.92236010  0.00789019  0.80301325    -0.87600
C2133       C  0.57775911  0.06523264  0.88544771     1.12400
O2134       O  0.95822517  0.48388433  0.83617711    -1.35400
O2135       O  0.55958987  0.07397846  0.81002133    -0.89100
O2136       O  0.89915957  0.46365627  0.80118679    -0.89700
O2137       O  0.95768998  0.45300056  0.77183394    -0.78600
O2138       O  0.98906619  0.04182117  0.80909054    -1.00700
C2139       C  0.54262578  0.47818767  0.78562434     1.22500
O2140       O  0.98555547  0.44873912  0.83639911    -1.35500
Mn2141     Mn  0.98736517  0.48072883  0.86990875     1.82100
O2142       O  0.52087005  0.48067689  0.77661216    -0.77600
O2143       O  0.58125174  0.04592763  0.80481848    -0.87000
C2144       C  0.53874807  0.47713956  0.89743511     1.13600
C2145       C  0.57866587  0.06852553  0.79772702     1.08300
O2146       O  0.95451411  0.45003338  0.90011697    -0.78600
O2147       O  0.52125112  0.01167061  0.83969254    -1.32300
O2148       O  0.92662474  0.42431305  0.86367516    -0.97800
C2149       C  0.98159732  0.39081089  0.79155220     1.07000
Mn2150     Mn  0.56300276  0.01282323  0.83883815     1.48600
O2151       O  0.95732670  0.38889661  0.80082662    -0.87000
Mn2152     Mn  0.91451141  0.44585482  0.83524413     1.49600
O2153       O  0.92146167  0.00563008  0.87104308    -0.90900
C2154       C  0.98864959  0.03696258  0.78170475     1.20200
C2155       C  0.90422103  0.48758117  0.88026957     1.12300
Mn2156     Mn  0.98889724  0.48179678  0.80381676     1.81000
O2157       O  0.54399077  0.47748917  0.87024119    -0.96000
Mn2158     Mn  0.95463943  0.02138899  0.83721951     1.49300
C2159       C  0.90549037  0.48945665  0.79132271     1.08800
Mn2160     Mn  0.52557565  0.44418223  0.84085548     1.49900
C2161       C  0.98008961  0.39032041  0.88048199     1.11700
O2162       O  0.92775561  0.42576213  0.80638980    -1.01800
O2163       O  0.58216610  0.04558258  0.87274147    -0.91500
C2164       C  0.93322889  0.43081977  0.77928153     1.23000
O2165       O  0.54614049  0.47817809  0.81306598    -1.02200
O2166       O  0.55652277  0.06970722  0.87767530    -0.89600
O2167       O  0.50827048  0.41048246  0.87423076    -0.89200
O2168       O  0.89828991  0.46214134  0.86972643    -0.89200
Mn2169     Mn  0.52499065  0.05465590  0.84206062     1.47900
O2170       O  0.51517218  0.47682128  0.90504376    -0.77700
C2171       C  0.93072157  0.42762501  0.89111458     1.16000
O2172       O  0.98872556  0.01368059  0.77329285    -0.76400
O2173       O  0.98590962  0.00980551  0.90190876    -0.76100
Mn2174     Mn  0.94390678  0.40801445  0.83499999     1.51100
O2175       O  0.51141530  0.41189776  0.80573079    -0.88400
O2176       O  0.98713718  0.03783756  0.86642320    -0.95900
O2177       O  0.95611564  0.38746565  0.86899815    -0.91000
C2178       C  0.98559647  0.03297286  0.89364235     1.13800
C2179       C  0.49263943  0.10241828  0.93204220    -0.13800
C2180       C  0.97786115  0.09367744  0.95602267     0.16600
C2181       C  0.97007231  0.06454062  0.96570325     0.02900
C2182       C  0.97317954  0.04497507  0.94551979    -0.12300
C2183       C  0.98262039  0.05369103  0.91520691    -0.03300
C2184       C  0.49313632  0.08284018  0.91045654     0.02100
C2185       C  0.97467668  0.11523340  0.97567779     0.09000
N2186       N  0.95664980  0.05380819  0.99489421     0.65300
H2187       H  0.96722218  0.02268902  0.95320085     0.18200
N2188       N  0.49830334  0.09247138  0.87948407     0.75800
H2189       H  0.49654052  0.12426059  0.92473810     0.09800
C2190       C  0.50561091  0.13712509  0.99900745     0.03500
C2191       C  0.50435552  0.17370971  0.48699153    -0.05300
C2192       C  0.97660548  0.16295719  0.50865571    -0.23600
C2193       C  0.95177235  0.14626218  0.98310125     0.12700
C2194       C  0.95324175  0.12323424  0.96772375    -0.12800
N2195       N  0.52947246  0.16045977  0.44808279     0.64400
H2196       H  0.51968386  0.19718151  0.48172543     0.12200
N2197       N  0.92970001  0.15377010  0.97409060     0.61000
H2198       H  0.93803270  0.11199404  0.94894454     0.08400
O2199       O  0.52419763  0.11243793  0.87140336    -0.40400
O2200       O  0.47614063  0.08638533  0.86259337    -0.39600
O2201       O  0.92905088  0.04428331  0.99850242    -0.39600
O2202       O  0.97224699  0.05381846  0.01707955    -0.37300
O2203       O  0.93373127  0.16915983  0.95030891    -0.38200
O2204       O  0.90420086  0.14060565  0.98647638    -0.34400
O2205       O  0.52561507  0.16883665  0.42225573    -0.35800
O2206       O  0.54439081  0.13408139  0.02279557    -0.40100
C2207       C  0.99839332  0.34550844  0.93766285    -0.13800
C2208       C  0.96979217  0.32473965  0.94830520     0.16600
C2209       C  0.94497787  0.32684443  0.93843891     0.02900
C2210       C  0.94884570  0.34869860  0.91691747    -0.12300
C2211       C  0.97744369  0.36900913  0.90507914    -0.03300
C2212       C  0.00250235  0.36762433  0.91643188     0.02100
C2213       C  0.96641399  0.29977957  0.96784229     0.09000
N2214       N  0.91568752  0.30687187  0.94998835     0.65300
H2215       H  0.92955164  0.34953713  0.90949839     0.18200
N2216       N  0.03233178  0.38811091  0.90657532     0.75800
H2217       H  0.01740333  0.34409534  0.94527405     0.09800
C2218       C  0.96325989  0.27349112  0.95464605     0.03500
C2219       C  0.96376532  0.25153509  0.97305413    -0.05300
C2220       C  0.98068261  0.26009902  0.50565449    -0.23600
C2221       C  0.99309994  0.28955862  0.51740195     0.12700
C2222       C  0.96931652  0.30338068  0.99955295    -0.12800
N2223       N  0.96060897  0.26927461  0.92232935     0.64400
H2224       H  0.96185183  0.23198523  0.96204564     0.12200
N2225       N  0.50985182  0.29976149  0.54735022     0.61000
H2226       H  0.45351477  0.30868560  0.00391432     0.08400
O2227       O  0.04222065  0.38256499  0.88261145    -0.40400
O2228       O  0.05045741  0.40753331  0.92502042    -0.39600
O2229       O  0.93101296  0.32980359  0.48458996    -0.39600
O2230       O  0.91369115  0.29640086  0.44828621    -0.37300
O2231       O  0.53719894  0.30779726  0.55030878    -0.38200
O2232       O  0.49624194  0.30391572  0.56901225    -0.34400
O2233       O  0.98351440  0.27551873  0.90665321    -0.35800
O2234       O  0.93498831  0.25496865  0.91027796    -0.40100
C2235       C  0.48112445  0.11902515  0.67299894    -0.13800
C2236       C  0.96158998  0.10880413  0.70039187     0.16600
C2237       C  0.94874644  0.12528887  0.71204515     0.02900
C2238       C  0.94975880  0.14876835  0.69502209    -0.12300
C2239       C  0.96367303  0.15651080  0.66630584    -0.03300
C2240       C  0.48267004  0.14276161  0.65575549     0.02100
C2241       C  0.96760551  0.08941919  0.72066053     0.09000
N2242       N  0.93514653  0.11882440  0.74153432     0.65300
H2243       H  0.93993755  0.16112808  0.70451745     0.18200
N2244       N  0.49696952  0.14898110  0.62660535     0.75800
H2245       H  0.49025635  0.10597319  0.66373370     0.09800
C2246       C  0.95663458  0.05873649  0.71492693     0.03500
C2247       C  0.96492592  0.04225674  0.73421212    -0.05300
C2248       C  0.98398637  0.05597208  0.75938234    -0.23600
C2249       C  0.99548130  0.08698848  0.76427580     0.12700
C2250       C  0.98724240  0.10319849  0.74500185    -0.12800
N2251       N  0.93617612  0.04382842  0.69046043     0.64400
H2252       H  0.95543126  0.01847744  0.73025771     0.12200
N2253       N  0.01704879  0.10317911  0.78740849     0.61000
H2254       H  0.99689801  0.12704373  0.74866951     0.08400
O2255       O  0.48559208  0.12983247  0.60551794    -0.40400
O2256       O  0.52357913  0.17030624  0.62397703    -0.39600
O2257       O  0.94904837  0.13569821  0.76374461    -0.39600
O2258       O  0.90749313  0.10034536  0.74395416    -0.37300
O2259       O  0.04424048  0.11307693  0.78111614    -0.38200
O2260       O  0.01071783  0.11693893  0.80712750    -0.34400
O2261       O  0.94418947  0.03423107  0.66798200    -0.35800
O2262       O  0.90903913  0.03664110  0.69326862    -0.40100
C2263       C  0.50831056  0.35169815  0.73513157    -0.13800
C2264       C  0.97276319  0.32698229  0.72186496     0.16600
C2265       C  0.94794986  0.32941738  0.73124399     0.02900
C2266       C  0.95151466  0.35057436  0.75341985    -0.12300
C2267       C  0.97964378  0.36978921  0.76685778    -0.03300
C2268       C  0.51133440  0.37232290  0.75779616     0.02100
C2269       C  0.96924899  0.30207460  0.70183655     0.09000
N2270       N  0.91894792  0.31066520  0.71829201     0.65300
H2271       H  0.93203975  0.35177062  0.76012662     0.18200
N2272       N  0.54039859  0.39111448  0.77060078     0.75800
H2273       H  0.52771630  0.35026654  0.72856349     0.09800
C2274       C  0.49251882  0.31185123  0.67501693     0.03500
C2275       C  0.49043083  0.28760949  0.65831806    -0.05300
C2276       C  0.96586212  0.25359454  0.66795762    -0.23600
C2277       C  0.94867642  0.24817692  0.69472310     0.12700
C2278       C  0.95061088  0.27231255  0.71142464    -0.12800
N2279       N  0.51045607  0.34160417  0.66342155     0.64400
H2280       H  0.50248857  0.29205408  0.63709551     0.12200
N2281       N  0.92854770  0.21828258  0.70486224     0.61000
H2282       H  0.93790596  0.26780975  0.73216505     0.08400
O2283       O  0.56170665  0.40813582  0.75323035    -0.40400
O2284       O  0.54626925  0.38513461  0.79675291    -0.39600
O2285       O  0.89836014  0.29072503  0.73446082    -0.39600
O2286       O  0.91251427  0.31760205  0.69291915    -0.37300
O2287       O  0.93425406  0.20860966  0.72891958    -0.38200
O2288       O  0.90306278  0.20344204  0.69262110    -0.34400
O2289       O  0.53854951  0.35486263  0.66649998    -0.35800
O2290       O  0.49898506  0.35218385  0.64540387    -0.40100
C2291       C  0.79861536  0.49110670  0.95630614    -0.13800
C2292       C  0.81966741  0.48486991  0.96944444     0.16600
C2293       C  0.81678596  0.47677399  0.00051868     0.02900
C2294       C  0.78388916  0.49508177  0.47825755    -0.12300
C2295       C  0.77471198  0.47820864  0.50535994    -0.03300
C2296       C  0.77464320  0.48900042  0.97330753     0.02100
C2297       C  0.84372553  0.48613015  0.94969771     0.09000
N2298       N  0.81457396  0.51251313  0.43224980     0.65300
H2299       H  0.77249064  0.50663835  0.47040080     0.18200
N2300       N  0.73213024  0.93463850  0.96290971     0.75800
H2301       H  0.78240170  0.94613106  0.93638843     0.09800
C2302       C  0.84469604  0.46001593  0.94223892     0.03500
C2303       C  0.86544248  0.46133054  0.92072830    -0.05300
C2304       C  0.88500515  0.48825236  0.90546413    -0.23600
C2305       C  0.88455433  0.51464823  0.91379122     0.12700
C2306       C  0.86413927  0.51332868  0.93576722    -0.12800
N2307       N  0.82327404  0.43153299  0.95457425     0.64400
H2308       H  0.86528185  0.44083001  0.91509176     0.12200
N2309       N  0.90329485  0.54267994  0.89899663     0.61000
H2310       H  0.86346342  0.53345436  0.94115438     0.08400
O2311       O  0.71361060  0.91043355  0.97578381    -0.40400
O2312       O  0.72730645  0.93948212  0.93583737    -0.39600
O2313       O  0.80325204  0.49836695  0.40781762    -0.39600
O2314       O  0.83210634  0.44887114  0.02953510    -0.37300
O2315       O  0.91634153  0.05564240  0.91735518    -0.38200
O2316       O  0.88920644  0.03804007  0.87635088    -0.34400
O2317       O  0.79657529  0.41865674  0.94509688    -0.35800
O2318       O  0.83207419  0.41708346  0.97061929    -0.40100
C2319       C  0.63444180  0.45288356  0.96792713    -0.13800
C2320       C  0.62448035  0.47216766  0.97843802     0.16600
C2321       C  0.64213559  0.99382583  0.00402207     0.02900
C2322       C  0.65884334  0.97975457  0.51615491    -0.12300
C2323       C  0.67719679  0.47444605  0.50355560    -0.03300
C2324       C  0.65672978  0.45032896  0.98355131     0.02100
C2325       C  0.60320259  0.47642185  0.95932064     0.09000
N2326       N  0.63422390  0.01467199  0.01619194     0.65300
H2327       H  0.66706106  0.99164777  0.53753512     0.18200
N2328       N  0.66510918  0.42924877  0.97307832     0.75800
H2329       H  0.62490389  0.43985805  0.94749224     0.09800
C2330       C  0.61089131  0.48661064  0.92911179     0.03500
C2331       C  0.58963457  0.48699258  0.90980288    -0.05300
C2332       C  0.56042064  0.47760130  0.91995047    -0.23600
C2333       C  0.55295437  0.46854283  0.95067281     0.12700
C2334       C  0.57440311  0.46801980  0.97011018    -0.12800
N2335       N  0.64037593  0.49665612  0.91769829     0.64400
H2336       H  0.59615240  0.49470272  0.88659921     0.12200
N2337       N  0.52334820  0.45807621  0.96193659     0.61000
H2338       H  0.56817973  0.45983214  0.99320100     0.08400
O2339       O  0.67556773  0.43166392  0.94656156    -0.40400
O2340       O  0.65721811  0.40553145  0.98812785    -0.39600
O2341       O  0.60758209  0.99463457  0.52995328    -0.39600
O2342       O  0.64825750  0.04170718  0.00763827    -0.37300
O2343       O  0.50336151  0.43103898  0.95796355    -0.38200
O2344       O  0.51835611  0.47446981  0.97953217    -0.34400
O2345       O  0.64454852  0.48124090  0.89801966    -0.35800
O2346       O  0.66126203  0.52277261  0.92393163    -0.40100
C2347       C  0.85578760  0.51154269  0.74749183    -0.13800
C2348       C  0.84322221  0.48878727  0.72548075     0.16600
C2349       C  0.85280248  0.46760727  0.72378907     0.02900
C2350       C  0.87394369  0.46874248  0.74470330    -0.12300
C2351       C  0.88609387  0.49109795  0.76729831    -0.03300
C2352       C  0.87728817  0.51307811  0.76814515     0.02100
C2353       C  0.81916738  0.48681220  0.70542590     0.09000
N2354       N  0.84057463  0.44429632  0.70148882     0.65300
H2355       H  0.88042417  0.45182886  0.74364456     0.18200
N2356       N  0.88825693  0.53578329  0.79118624     0.75800
H2357       H  0.84853145  0.52786485  0.74892031     0.09800
C2358       C  0.79029128  0.47672205  0.71708388     0.03500
C2359       C  0.76821903  0.47668075  0.69852166    -0.05300
C2360       C  0.77422275  0.48660570  0.66807484    -0.23600
C2361       C  0.80347671  0.49720646  0.65649735     0.12700
C2362       C  0.82551735  0.49684205  0.67514778    -0.12800
N2363       N  0.78292662  0.46592097  0.74769641     0.64400
H2364       H  0.74603200  0.46821230  0.70796541     0.12200
N2365       N  0.79278841  0.96569021  0.62542251     0.61000
H2366       H  0.83274323  0.97286741  0.66653886     0.08400
O2367       O  0.87075302  0.53497136  0.81173374    -0.40400
O2368       O  0.91355821  0.55907368  0.78802850    -0.39600
O2369       O  0.85618049  0.44562433  0.67877457    -0.39600
O2370       O  0.81578968  0.42081744  0.70631232    -0.37300
O2371       O  0.80967556  0.98676961  0.60771666    -0.38200
O2372       O  0.78158966  0.93884136  0.61667243    -0.34400
O2373       O  0.77734616  0.48054122  0.76711526    -0.35800
O2374       O  0.77773521  0.43984035  0.75409762    -0.40100
C2375       C  0.62323982  0.45857921  0.67669545    -0.13800
C2376       C  0.63027230  0.47931000  0.70064991     0.16600
C2377       C  0.66070569  0.50123096  0.70533276     0.02900
C2378       C  0.68314916  0.50111645  0.68746115    -0.12300
C2379       C  0.67617780  0.48027022  0.66385297    -0.03300
C2380       C  0.64579578  0.45925872  0.65803337     0.02100
C2381       C  0.60628023  0.47665091  0.72195332     0.09000
N2382       N  0.66926828  0.52432694  0.72770051     0.65300
H2383       H  0.70626996  0.51776008  0.69187628     0.18200
N2384       N  0.63758627  0.43732013  0.63450281     0.75800
H2385       H  0.60030731  0.44119244  0.67300314     0.09800
C2386       C  0.57895295  0.47371331  0.71153229     0.03500
C2387       C  0.55777881  0.47256870  0.73255822    -0.05300
C2388       C  0.56352949  0.47521651  0.76412832    -0.23600
C2389       C  0.59000285  0.47612054  0.77455222     0.12700
C2390       C  0.61078211  0.47666845  0.75358703    -0.12800
N2391       N  0.57008685  0.97131940  0.67633400     0.64400
H2392       H  0.53597473  0.97033849  0.72161050     0.12200
N2393       N  0.59640456  0.47673360  0.80637923     0.61000
H2394       H  0.63065767  0.47717885  0.76218895     0.08400
O2395       O  0.62948358  0.44178195  0.60879471    -0.40400
O2396       O  0.63379300  0.41173245  0.64085399    -0.39600
O2397       O  0.68517874  0.52541355  0.75009844    -0.39600
O2398       O  0.66691007  0.54698357  0.72146065    -0.37300
O2399       O  0.61443119  0.50121517  0.81914834    -0.38200
O2400       O  0.58532973  0.45257222  0.82136618    -0.34400
O2401       O  0.54861141  0.94786057  0.66499028    -0.35800
O2402       O  0.58212276  0.99531806  0.66104450    -0.40100
C2403       C  0.85458581  0.32987206  0.00025932    -0.13800
C2404       C  0.84434519  0.34018100  0.97591887     0.16600
C2405       C  0.81328600  0.32548787  0.96977965     0.02900
C2406       C  0.79344298  0.30039934  0.98692745    -0.12300
C2407       C  0.79756329  0.29605610  0.50976217    -0.03300
C2408       C  0.82754570  0.31249530  0.52011425     0.02100
C2409       C  0.86635181  0.36345165  0.95475416     0.09000
N2410       N  0.80145409  0.33585074  0.94624944     0.65300
H2411       H  0.76982797  0.28935475  0.98162813     0.18200
N2412       N  0.83691306  0.30377069  0.54705117     0.75800
H2413       H  0.87825870  0.34021190  0.00477010     0.09800
C2414       C  0.88959531  0.39157428  0.96495261     0.03500
C2415       C  0.91033830  0.41214788  0.94400241    -0.05300
C2416       C  0.90839644  0.40532616  0.91272484    -0.23600
C2417       C  0.88523572  0.37691499  0.90269585     0.12700
C2418       C  0.86486969  0.35640045  0.92367931    -0.12800
N2419       N  0.89228491  0.39974909  0.99642157     0.64400
H2420       H  0.92782466  0.43362629  0.95225011     0.12200
N2421       N  0.88234874  0.36803435  0.87139313     0.61000
H2422       H  0.84798697  0.33456601  0.91561417     0.08400
O2423       O  0.84739267  0.32163714  0.56931018    -0.40400
O2424       O  0.83916636  0.28045958  0.54670871    -0.39600
O2425       O  0.78981327  0.31984338  0.92289104    -0.39600
O2426       O  0.79648367  0.35697963  0.95191119    -0.37300
O2427       O  0.89094233  0.35009489  0.86308617    -0.38200
O2428       O  0.86583415  0.37293542  0.85387151    -0.34400
O2429       O  0.90124036  0.41464327  0.51071207    -0.35800
O2430       O  0.86267310  0.41534582  0.49120853    -0.40100
C2431       C  0.67722023  0.13946988  0.99470822    -0.13800
C2432       C  0.66853869  0.14863068  0.96838643     0.16600
C2433       C  0.68127563  0.17939591  0.96200150     0.02900
C2434       C  0.70316007  0.20052449  0.98136610    -0.12300
C2435       C  0.70495885  0.19822606  0.50597023    -0.03300
C2436       C  0.68095174  0.17171760  0.51858610     0.02100
C2437       C  0.64506787  0.12600563  0.94846704     0.09000
N2438       N  0.67243795  0.18946099  0.93566760     0.65300
H2439       H  0.71298030  0.22406212  0.97580669     0.18200
N2440       N  0.67729382  0.16713355  0.55076102     0.75800
H2441       H  0.66708942  0.11584301  0.99995917     0.09800
C2442       C  0.65040739  0.10694403  0.92990542     0.03500
C2443       C  0.62782790  0.08652681  0.91046239    -0.05300
C2444       C  0.59966655  0.08476867  0.90906391    -0.23600
C2445       C  0.59433629  0.10343245  0.92866379     0.12700
C2446       C  0.61699779  0.12384905  0.94792904    -0.12800
N2447       N  0.67912401  0.10912633  0.92949715     0.64400
H2448       H  0.63280837  0.07275841  0.89575179     0.12200
N2449       N  0.56571313  0.10110740  0.93065620     0.61000
H2450       H  0.61259243  0.13799525  0.96271518     0.08400
O2451       O  0.68905961  0.15395059  0.56430745    -0.40400
O2452       O  0.65738758  0.17027447  0.56411793    -0.39600
O2453       O  0.65507919  0.19994138  0.93855819    -0.39600
O2454       O  0.68540485  0.19208646  0.91051811    -0.37300
O2455       O  0.54734788  0.08306682  0.94986847    -0.38200
O2456       O  0.56291243  0.12284342  0.92160747    -0.34400
O2457       O  0.63936840  0.08016392  0.49039789    -0.35800
O2458       O  0.67108143  0.08949063  0.45339464    -0.40100
C2459       C  0.83271775  0.31255871  0.71307352    -0.13800
C2460       C  0.84649981  0.34096765  0.69930894     0.16600
C2461       C  0.83964538  0.34364583  0.66880273     0.02900
C2462       C  0.81805073  0.31830985  0.65316463    -0.12300
C2463       C  0.80280454  0.29014025  0.66757467    -0.03300
C2464       C  0.81085926  0.28729293  0.69769399     0.02100
C2465       C  0.86790830  0.36719747  0.71751825     0.09000
N2466       N  0.85300545  0.37216732  0.65399000     0.65300
H2467       H  0.81229084  0.32106393  0.63015857     0.18200
N2468       N  0.79732947  0.25896911  0.71300048     0.75800
H2469       H  0.83874491  0.31002936  0.73603135     0.09800
C2470       C  0.85947843  0.37284059  0.74622375     0.03500
C2471       C  0.88109007  0.39421389  0.76550128    -0.05300
C2472       C  0.91120466  0.41078151  0.75655756    -0.23600
C2473       C  0.91940186  0.40661481  0.72701525     0.12700
C2474       C  0.89775086  0.38465734  0.70784471    -0.12800
N2475       N  0.82903560  0.35669150  0.75630747     0.64400
H2476       H  0.87425916  0.39768218  0.78767881     0.12200
N2477       N  0.94976998  0.42312324  0.71680816     0.61000
H2478       H  0.90453295  0.38029360  0.68608415     0.08400
O2479       O  0.77734804  0.25299741  0.73278409    -0.40400
O2480       O  0.80936278  0.24287395  0.71129770    -0.39600
O2481       O  0.87245514  0.37824726  0.63357590    -0.39600
O2482       O  0.84072571  0.38798171  0.65626004    -0.37300
O2483       O  0.96751661  0.41361971  0.72270990    -0.38200
O2484       O  0.95742436  0.44422750  0.69791537    -0.34400
O2485       O  0.82195608  0.33882408  0.77854689    -0.35800
O2486       O  0.81072819  0.36437670  0.74687166    -0.40100
C2487       C  0.63141250  0.10223754  0.73005456    -0.13800
C2488       C  0.64103079  0.13273143  0.73350309     0.16600
C2489       C  0.62962543  0.14210746  0.75756596     0.02900
C2490       C  0.60944724  0.12096563  0.77833737    -0.12300
C2491       C  0.59940879  0.09021195  0.77480440    -0.03300
C2492       C  0.61032934  0.08099206  0.75008475     0.02100
C2493       C  0.66363908  0.15449913  0.71223542     0.09000
N2494       N  0.63861751  0.17305105  0.76133306     0.65300
H2495       H  0.60206087  0.12873343  0.79756194     0.18200
N2496       N  0.59870774  0.04999488  0.74383804     0.75800
H2497       H  0.63976321  0.09486200  0.71127849     0.09800
C2498       C  0.69415149  0.16417794  0.71643203     0.03500
C2499       C  0.71538385  0.18511493  0.69636796    -0.05300
C2500       C  0.70668231  0.19664177  0.67182101    -0.23600
C2501       C  0.67596818  0.18660281  0.66736717     0.12700
C2502       C  0.65466770  0.16544233  0.68750216    -0.12800
N2503       N  0.70389638  0.15331893  0.74139316     0.64400
H2504       H  0.73874063  0.19258177  0.70014242     0.12200
N2505       N  0.66621097  0.19913465  0.64398238     0.61000
H2506       H  0.63127457  0.15814776  0.68434950     0.08100
O2507       O  0.61624830  0.03965601  0.74238047    -0.40400
O2508       O  0.57214991  0.03452449  0.73434259    -0.39600
O2509       O  0.62258337  0.18295356  0.75044545    -0.39600
O2510       O  0.65964377  0.18911993  0.77944907    -0.37300
O2511       O  0.64697886  0.18202841  0.62479850    -0.38200
O2512       O  0.67202433  0.22596720  0.64626282    -0.34400
O2513       O  0.70903510  0.13204943  0.73729836    -0.35800
O2514       O  0.71091722  0.16734000  0.76639626    -0.40100
C2515       C  0.73826947  0.71746676  0.15415530     0.80800
N2516       N  0.73705924  0.71604490  0.12310837    -0.77500
C2517       C  0.76107323  0.73582356  0.10623171     0.83200
N2518       N  0.78613797  0.75703754  0.12041123    -0.77400
C2519       C  0.78779944  0.75828190  0.15122101     0.83300
N2520       N  0.76382291  0.73859925  0.16790982    -0.79200
C2521       C  0.73480963  0.71439781  0.02674464     0.80800
N2522       N  0.73641845  0.71330328  0.05761060    -0.77500
C2523       C  0.75980021  0.73586508  0.07282999     0.83200
N2524       N  0.78163441  0.75947123  0.05707594    -0.77400
C2525       C  0.78000610  0.76082796  0.02628492     0.83300
N2526       N  0.75638437  0.73837531  0.01134575    -0.79200
C2527       C  0.73739803  0.95783618  0.15039459     0.80800
N2528       N  0.73901086  0.96041770  0.11944517    -0.77500
C2529       C  0.71697719  0.96144122  0.10338135     0.83200
N2530       N  0.69330070  0.96007573  0.11835743    -0.77400
C2531       C  0.69104717  0.95693640  0.14908298     0.83300
N2532       N  0.71312515  0.95583727  0.16501695    -0.79200
C2533       C  0.74048311  0.96407074  0.02280005     0.80800
N2534       N  0.71790336  0.96539189  0.00803266    -0.77500
C2535       C  0.69557032  0.96594753  0.02400183     0.83200
N2536       N  0.69592105  0.96516134  0.05488166    -0.77400
C2537       C  0.71808813  0.96356370  0.06992636     0.83300
N2538       N  0.74050780  0.96329002  0.05386354    -0.79200
C2539       C  0.98209520  0.73553678  0.15248428     0.80800
N2540       N  0.98487586  0.73807342  0.12155958    -0.77500
C2541       C  0.98427608  0.71558226  0.10476029     0.83200
N2542       N  0.98122717  0.69076001  0.11898152    -0.77400
C2543       C  0.97857786  0.68797275  0.14970327     0.83300
N2544       N  0.97885531  0.71040596  0.16631858    -0.79200
C2545       C  0.98518354  0.73910161  0.02420318     0.80800
N2546       N  0.98413441  0.71532002  0.00957367    -0.77500
C2547       C  0.98401878  0.69262745  0.02523801     0.83200
N2548       N  0.98492498  0.69352144  0.05604085    -0.77400
C2549       C  0.98549127  0.71675829  0.07126556     0.83300
N2550       N  0.98565440  0.73963052  0.05533824    -0.79200
O2551       O  0.92243671  0.50399271  0.30247735    -0.87600
C2552       C  0.57283405  0.57007113  0.38126055     1.12400
O2553       O  0.95777189  0.97888452  0.33699071    -1.35400
O2554       O  0.55461902  0.57421720  0.30369527    -0.89100
O2555       O  0.89839426  0.95186092  0.30133527    -0.89700
O2556       O  0.96200554  0.94934983  0.27362499    -0.78600
O2557       O  0.98912995  0.54002144  0.30831930    -1.00700
C2558       C  0.54434562  0.97943759  0.28213144     1.22500
O2559       O  0.99066132  0.94925612  0.33909090    -1.35500
Mn2560     Mn  0.98820047  0.97973033  0.37162806     1.82100
O2561       O  0.52197316  0.98081704  0.27319863    -0.77600
O2562       O  0.57995570  0.54943866  0.30267895    -0.87000
C2563       C  0.54186468  0.97907518  0.39371550     1.13600
C2564       C  0.57542722  0.57025723  0.29343311     1.08300
O2565       O  0.95627486  0.94793923  0.40177638    -0.78600
O2566       O  0.51944060  0.51293559  0.33633924    -1.32300
O2567       O  0.93056448  0.91930011  0.36569741    -0.97800
C2568       C  0.99416601  0.89476644  0.29510961     1.07000
Mn2569     Mn  0.56248232  0.51701531  0.33725453     1.48600
O2570       O  0.96881566  0.88975599  0.30477491    -0.87000
Mn2571     Mn  0.91618122  0.93770599  0.33596140     1.49600
O2572       O  0.92226496  0.50216401  0.37090746    -0.90900
C2573       C  0.98932916  0.53521464  0.28107733     1.20200
C2574       C  0.89921577  0.97563913  0.37843440     1.12300
Mn2575     Mn  0.99085769  0.98044446  0.30567034     1.81000
O2576       O  0.54659307  0.97960517  0.36647386    -0.96000
Mn2577     Mn  0.95511717  0.51933743  0.33678290     1.49300
C2578       C  0.90165579  0.97623120  0.29048210     1.08800
Mn2579     Mn  0.52889962  0.94609579  0.33754822     1.49900
C2580       C  0.99128112  0.89387430  0.38351194     1.11700
O2581       O  0.93336041  0.92057974  0.30818520    -1.01800
O2582       O  0.57896879  0.55062932  0.37092117    -0.91500
C2583       C  0.93893335  0.92557720  0.28105592     1.23000
O2584       O  0.54834581  0.97996835  0.30952630    -1.02200
O2585       O  0.55131116  0.57288264  0.37109427    -0.89600
O2586       O  0.51314889  0.91294460  0.37126806    -0.89200
O2587       O  0.89592607  0.95087381  0.36893311    -0.89200
Mn2588     Mn  0.52009806  0.55461892  0.33590490     1.47900
O2589       O  0.51859895  0.97919884  0.40183730    -0.77700
C2590       C  0.93382724  0.92401893  0.39309589     1.16000
O2591       O  0.99041969  0.51237264  0.27308993    -0.76400
O2592       O  0.98862402  0.51104235  0.40112616    -0.76100
Mn2593     Mn  0.95165318  0.90617664  0.33797130     1.51100
O2594       O  0.51496027  0.91331817  0.30291386    -0.88400
O2595       O  0.98828247  0.53888959  0.36581392    -0.95900
O2596       O  0.96622975  0.88880367  0.37287211    -0.91000
C2597       C  0.98812342  0.53418287  0.39307101     1.13800
C2598       C  0.47058803  0.59448366  0.42385279    -0.13800
C2599       C  0.99458255  0.60101621  0.45662952     0.16600
C2600       C  0.00604270  0.58218528  0.46435289     0.02900
C2601       C  0.00274979  0.55966666  0.44394051    -0.12300
C2602       C  0.98854142  0.55603006  0.41551750    -0.03300
C2603       C  0.47088972  0.57402151  0.40321928     0.02100
C2604       C  0.99617561  0.62423779  0.47750951     0.09000
N2605       N  0.02206043  0.58655340  0.49223929     0.65300
H2606       H  0.01234380  0.54577524  0.44982792     0.18200
N2607       N  0.46085744  0.57410153  0.37284368     0.75800
H2608       H  0.46246240  0.60920977  0.41638980     0.09800
C2609       C  0.49972898  0.65034980  0.46720372     0.03500
C2610       C  0.49720907  0.66458810  0.00285079    -0.05300
C2611       C  0.98329585  0.66740430  0.00877833    -0.23600
C2612       C  0.97159566  0.63723422  0.51717148     0.12700
C2613       C  0.97500977  0.61566825  0.50096257    -0.12800
N2614       N  0.53150071  0.65001653  0.98093516     0.64400
H2615       H  0.51628898  0.68625616  0.00817494     0.12200
N2616       N  0.94734409  0.62741249  0.53830684     0.61000
H2617       H  0.95974728  0.59204842  0.50528671     0.08400
O2618       O  0.47739362  0.59594478  0.35584559    -0.40400
O2619       O  0.43312975  0.55971134  0.36734161    -0.39600
O2620       O  0.00866035  0.57108419  0.51539559    -0.39600
O2621       O  0.04855146  0.60814843  0.49472491    -0.37300
O2622       O  0.92488331  0.62982111  0.53134426    -0.38200
O2623       O  0.94582460  0.61152195  0.56091074    -0.34400
O2624       O  0.54385790  0.66535877  0.95738430    -0.35800
O2625       O  0.54809699  0.66675777  0.44982285    -0.40100
C2626       C  0.01327082  0.84611505  0.43085097    -0.13800
C2627       C  0.98753921  0.82966083  0.44853695     0.16600
C2628       C  0.96403436  0.83598517  0.44667847     0.02900
C2629       C  0.96599736  0.85771889  0.42609625    -0.12300
C2630       C  0.99139019  0.87361850  0.40746244    -0.03300
C2631       C  0.01556734  0.86813371  0.41062002     0.02100
C2632       C  0.98559666  0.80548069  0.46815230     0.09000
N2633       N  0.93758979  0.81966649  0.46465046     0.65300
H2634       H  0.94740126  0.86179503  0.42434731     0.18200
N2635       N  0.04200230  0.88351853  0.39241098     0.75800
H2636       H  0.03155330  0.84154694  0.43250710     0.09800
C2637       C  0.98409721  0.77982893  0.45514902     0.03500
C2638       C  0.98458937  0.75816303  0.47386483    -0.05300
C2639       C  0.98545244  0.76353710  0.00547196    -0.23600
C2640       C  0.98398614  0.78816222  0.01801317     0.12700
C2641       C  0.98764848  0.80912899  0.49987960    -0.12800
N2642       N  0.98169098  0.77530728  0.42286665     0.64400
H2643       H  0.98301656  0.73859995  0.46316919     0.12200
N2644       N  0.46081296  0.77939531  0.04925205     0.61000
H2645       H  0.47925398  0.82601868  0.50867288     0.08400
O2646       O  0.04643107  0.86963055  0.37121837    -0.40400
O2647       O  0.06338754  0.90829965  0.40149814    -0.39600
O2648       O  0.91659039  0.81456935  0.96860814    -0.39600
O2649       O  0.91658498  0.78205170  0.93672660    -0.37300
O2650       O  0.48294178  0.79449354  0.06655594    -0.38200
O2651       O  0.43469108  0.77078894  0.05886839    -0.34400
O2652       O  0.00405857  0.77875086  0.40784661    -0.35800
O2653       O  0.95621750  0.76302291  0.41038756    -0.40100
C2654       C  0.47597725  0.61422760  0.16801867    -0.13800
C2655       C  0.96969723  0.61081140  0.19772288     0.16600
C2656       C  0.95609514  0.62681285  0.20880953     0.02900
C2657       C  0.95869171  0.65136724  0.19249436    -0.12300
C2658       C  0.97475412  0.66050838  0.16499777    -0.03300
C2659       C  0.47760093  0.63861785  0.15207537     0.02100
C2660       C  0.97430435  0.59052625  0.21808873     0.09000
N2661       N  0.94029969  0.61890537  0.23715543     0.65300
H2662       H  0.94845631  0.66345645  0.20157786     0.18200
N2663       N  0.49470719  0.64820167  0.12454134     0.75800
H2664       H  0.48743913  0.60312393  0.15908694     0.09800
C2665       C  0.96309332  0.55989048  0.21172391     0.03500
C2666       C  0.96891741  0.54225583  0.23202501    -0.05300
C2667       C  0.98622928  0.55491323  0.25845826    -0.23600
C2668       C  0.99862235  0.58600742  0.26370482     0.12700
C2669       C  0.99236338  0.60325735  0.24375969    -0.12800
N2670       N  0.94532152  0.54630658  0.18519402     0.64400
H2671       H  0.95927831  0.51851645  0.22750317     0.12200
N2672       N  0.01923962  0.60109556  0.28795336     0.61000
H2673       H  0.00226076  0.62706786  0.24805545     0.08400
O2674       O  0.48508337  0.63219646  0.10087237    -0.40400
O2675       O  0.52148965  0.66945990  0.12540725    -0.39600
O2676       O  0.95256212  0.63455206  0.26057599    -0.39600
O2677       O  0.91247847  0.60063358  0.23728443    -0.37300
O2678       O  0.04660159  0.61735091  0.28145242    -0.38200
O2679       O  0.00965804  0.60660457  0.31207586    -0.34400
O2680       O  0.95742968  0.54297050  0.16166662    -0.35800
O2681       O  0.91713256  0.53269511  0.18718125    -0.40100
C2682       C  0.51008864  0.84758288  0.23824924    -0.13800
C2683       C  0.99068315  0.83307736  0.22611690     0.16600
C2684       C  0.96623646  0.83758913  0.23094160     0.02900
C2685       C  0.96819098  0.85824415  0.25289087    -0.12300
C2686       C  0.99433829  0.87492923  0.27040612    -0.03300
C2687       C  0.51343615  0.86901508  0.26003198     0.02100
C2688       C  0.98788629  0.80845163  0.20626496     0.09000
N2689       N  0.93920836  0.82124493  0.21373768     0.65300
H2690       H  0.94892786  0.86105005  0.25631708     0.18200
N2691       N  0.54108469  0.88452818  0.27635146     0.75800
H2692       H  0.52861018  0.84380369  0.23393256     0.09800
C2693       C  0.47766133  0.80434706  0.17273020     0.03500
C2694       C  0.47417232  0.77948491  0.15612319    -0.05300
C2695       C  0.98330388  0.76025133  0.17101849    -0.23600
C2696       C  0.96596092  0.75463152  0.19775039     0.12700
C2697       C  0.96813395  0.77864897  0.21483887    -0.12800
N2698       N  0.48130955  0.83015032  0.15671113     0.64400
H2699       H  0.47382864  0.78042467  0.13158418     0.12200
N2700       N  0.94579265  0.72470630  0.20776011     0.61000
H2701       H  0.95477501  0.77402865  0.23520536     0.08400
O2702       O  0.56457203  0.90298600  0.26243188    -0.40400
O2703       O  0.54325123  0.87497481  0.30219373    -0.39600
O2704       O  0.91551828  0.80200779  0.22684243    -0.39600
O2705       O  0.93786748  0.82946074  0.18694045    -0.37300
O2706       O  0.95355335  0.71355256  0.22908801    -0.38200
O2707       O  0.91867597  0.71195401  0.19968007    -0.34400
O2708       O  0.50731573  0.85201981  0.15226895    -0.35800
O2709       O  0.45950376  0.82874948  0.14219922    -0.40100
C2710       C  0.80946471  0.95967595  0.49338962    -0.13800
C2711       C  0.81744557  0.97789847  0.46737135     0.16600
C2712       C  0.80204883  0.99332867  0.46055865     0.02900
C2713       C  0.79484495  0.98039351  0.01736695    -0.12300
C2714       C  0.76562648  0.96498783  0.00524373    -0.03300
C2715       C  0.78550779  0.95551273  0.51196129     0.02100
C2716       C  0.83926984  0.97755051  0.44574874     0.09000
N2717       N  0.84881206  0.99991015  0.01331103     0.65300
H2718       H  0.79874079  0.99061710  0.03973371     0.18200
N2719       N  0.78045384  0.44434675  0.54136070     0.75800
H2720       H  0.82464678  0.45294983  0.50452903     0.09800
C2721       C  0.86816598  0.00244805  0.44179128     0.03500
C2722       C  0.88748881  0.00124166  0.42009206    -0.05300
C2723       C  0.87854822  0.97540681  0.40217049    -0.23600
C2724       C  0.84960484  0.95036028  0.40659158     0.12700
C2725       C  0.83035799  0.95166584  0.42822926    -0.12800
N2726       N  0.87850921  0.02876032  0.46015916     0.64400
H2727       H  0.90955077  0.02033790  0.41762948     0.12200
N2728       N  0.83880926  0.92390677  0.38839171     0.61000
H2729       H  0.80817355  0.93259137  0.43101298     0.08400
O2730       O  0.79822435  0.44988145  0.56339989    -0.40400
O2731       O  0.75673707  0.41915999  0.53992410    -0.39600
O2732       O  0.86251680  0.02822583  0.01330581    -0.39600
O2733       O  0.82065825  0.03965780  0.43662217    -0.37300
O2734       O  0.82245912  0.42107459  0.37028209    -0.38200
O2735       O  0.84539383  0.40417222  0.39889869    -0.34400
O2736       O  0.88680265  0.02861951  0.48721870    -0.35800
O2737       O  0.88501309  0.05341858  0.44774965    -0.40100
C2738       C  0.63855429  0.95102050  0.46002187    -0.13800
C2739       C  0.62742288  0.96909839  0.47123674     0.16600
C2740       C  0.63725680  0.48707186  0.50224172     0.02900
C2741       C  0.65829449  0.48531794  0.02164703    -0.12300
C2742       C  0.67173048  0.96878356  0.00812459    -0.03300
C2743       C  0.66017746  0.94777653  0.47628733     0.02100
C2744       C  0.60596288  0.97352553  0.45248374     0.09000
N2745       N  0.62108634  0.49888107  0.51785298     0.65300
H2746       H  0.66776769  0.49834169  0.04209781     0.18200
N2747       N  0.67077671  0.92904607  0.46410630     0.75800
H2748       H  0.63051880  0.93950430  0.43844187     0.09800
C2749       C  0.61382803  0.98585806  0.42300351     0.03500
C2750       C  0.59277506  0.98808957  0.40487147    -0.05300
C2751       C  0.56350227  0.97811040  0.41536358    -0.23600
C2752       C  0.55567098  0.96613312  0.44510187     0.12700
C2753       C  0.57695153  0.96404395  0.46342577    -0.12800
N2754       N  0.64323428  0.99632143  0.41114650     0.64400
H2755       H  0.59942695  0.99757755  0.38227159     0.12200
N2756       N  0.52583171  0.95423252  0.45628814     0.61000
H2757       H  0.57047591  0.95397236  0.48579148     0.08400
O2758       O  0.68865289  0.93806530  0.44182349    -0.40400
O2759       O  0.65901047  0.90206992  0.47264102    -0.39600
O2760       O  0.60960406  0.49990459  0.04094731    -0.39600
O2761       O  0.62799915  0.52584416  0.51366709    -0.37300
O2762       O  0.50628863  0.92753970  0.45003418    -0.38200
O2763       O  0.52043768  0.96830865  0.47651131    -0.34400
O2764       O  0.64720154  0.98148479  0.39061859    -0.35800
O2765       O  0.66384670  0.02264903  0.41710384    -0.40100
C2766       C  0.85385098  0.99415436  0.23707495    -0.13800
C2767       C  0.83369216  0.96552395  0.22572690     0.16600
C2768       C  0.83720978  0.94109417  0.23410928     0.02900
C2769       C  0.86022757  0.94540777  0.25407878    -0.12300
C2770       C  0.88001132  0.97388535  0.26648587    -0.03300
C2771       C  0.87671515  0.99852226  0.25745551     0.02100
C2772       C  0.80862190  0.96156789  0.20593677     0.09000
N2773       N  0.81767477  0.91172702  0.22238058     0.65300
H2774       H  0.86220746  0.92617974  0.26016983     0.18200
N2775       N  0.89533859  0.02784552  0.26974902     0.75800
H2776       H  0.85125477  0.01299184  0.23082255     0.09800
C2777       C  0.77906960  0.94826631  0.21704469     0.03500
C2778       C  0.75619433  0.94650228  0.19829638    -0.05300
C2779       C  0.76212072  0.95806922  0.16841269    -0.23600
C2780       C  0.79177466  0.97064907  0.15710894     0.12700
C2781       C  0.81459256  0.97230025  0.17592474    -0.12800
N2782       N  0.77219330  0.93779689  0.24781802     0.64400
H2783       H  0.73377989  0.93662881  0.20753338     0.12200
N2784       N  0.80031277  0.47923328  0.12383959     0.61000
H2785       H  0.83878111  0.48012781  0.16388846     0.08400
O2786       O  0.88671133  0.03611648  0.29280688    -0.40400
O2787       O  0.91734161  0.04703498  0.25449145    -0.39600
O2788       O  0.82286768  0.90472320  0.19647185    -0.39600
O2789       O  0.79967358  0.89133704  0.24010487    -0.37300
O2790       O  0.81198096  0.50613187  0.11506451    -0.38200
O2791       O  0.79931669  0.45963858  0.10583136    -0.34400
O2792       O  0.77924088  0.95651450  0.26924400    -0.35800
O2793       O  0.75432561  0.91034974  0.25297805    -0.40100
C2794       C  0.62697748  0.93780891  0.20399108    -0.13800
C2795       C  0.62174819  0.96174580  0.19891812     0.16600
C2796       C  0.63826238  0.98303172  0.17610837     0.02900
C2797       C  0.65973515  0.98019041  0.15909168    -0.12300
C2798       C  0.66584517  0.95700029  0.16509498    -0.03300
C2799       C  0.64879440  0.93528404  0.18727403     0.02100
C2800       C  0.60115455  0.96565446  0.21958763     0.09000
N2801       N  0.63550648  0.00909300  0.17190116     0.65300
H2802       H  0.67295713  0.99721899  0.14232696     0.18200
N2803       N  0.65279960  0.91009831  0.19238156     0.75800
H2804       H  0.61430037  0.92121700  0.22130408     0.09800
C2805       C  0.57411993  0.96335591  0.20939901     0.03500
C2806       C  0.55616752  0.96845712  0.22985079    -0.05300
C2807       C  0.56441210  0.97536057  0.26066828    -0.23600
C2808       C  0.59122491  0.97682014  0.27082679     0.12700
C2809       C  0.60924930  0.97220479  0.25028581    -0.12800
N2810       N  0.56455626  0.45725726  0.17837211     0.64400
H2811       H  0.53600957  0.46869035  0.22142878     0.12200
N2812       N  0.60047927  0.98271722  0.30201398     0.61000
H2813       H  0.62989910  0.97380269  0.25841303     0.08400
O2814       O  0.64033204  0.88772124  0.17479947    -0.40400
O2815       O  0.66474786  0.90825954  0.21680220    -0.39600
O2816       O  0.64659186  0.02976879  0.19154307    -0.39600
O2817       O  0.62822885  0.01432599  0.14610362    -0.37300
O2818       O  0.61551473  0.00941283  0.31140678    -0.38200
O2819       O  0.59508374  0.96127025  0.31976025    -0.34400
O2820       O  0.55717504  0.43106141  0.16974599    -0.35800
O2821       O  0.55706950  0.47287133  0.16241387    -0.40100
C2822       C  0.84825719  0.83479105  0.50504338    -0.13800
C2823       C  0.84101453  0.84297920  0.47708551     0.16600
C2824       C  0.81087157  0.82808331  0.46751922     0.02900
C2825       C  0.78893958  0.80442663  0.48482405    -0.12300
C2826       C  0.80251072  0.78724637  0.00903967    -0.03300
C2827       C  0.83337926  0.80169334  0.01577806     0.02100
C2828       C  0.86526583  0.86421659  0.45628442     0.09000
N2829       N  0.80211753  0.83703835  0.44034479     0.65300
H2830       H  0.76608604  0.79318858  0.47670102     0.18200
N2831       N  0.84452724  0.79088437  0.03950426     0.75800
H2832       H  0.87130864  0.84572594  0.51249376     0.09800
C2833       C  0.88566859  0.89416550  0.46446850     0.03500
C2834       C  0.90837688  0.91305468  0.44403373    -0.05300
C2835       C  0.91090093  0.90277543  0.41503626    -0.23600
C2836       C  0.89050100  0.87257362  0.40710634     0.12700
C2837       C  0.86829320  0.85370991  0.42775898    -0.12800
N2838       N  0.88272072  0.90612617  0.49280303     0.64400
H2839       H  0.92339490  0.93609458  0.45049345     0.12200
N2840       N  0.89207893  0.86042501  0.37830383     0.61000
H2841       H  0.85322682  0.83064616  0.42141460     0.08400
O2842       O  0.85329953  0.80517017  0.06428123    -0.40400
O2843       O  0.85014585  0.77016275  0.03388850    -0.39600
O2844       O  0.79338822  0.81987507  0.41745250    -0.39600
O2845       O  0.79768268  0.85900977  0.44126707    -0.37300
O2846       O  0.90313602  0.84344315  0.37693992    -0.38200
O2847       O  0.87645514  0.86083551  0.35633418    -0.34400
O2848       O  0.91262624  0.89453957  0.01100835    -0.35800
O2849       O  0.87920632  0.90822921  0.00544373    -0.40100
C2850       C  0.65846437  0.64951311  0.49828917    -0.13800
C2851       C  0.65763772  0.65620433  0.46740931     0.16600
C2852       C  0.67802809  0.68511068  0.45656290     0.02900
C2853       C  0.69941402  0.70642211  0.47625783    -0.12300
C2854       C  0.70929462  0.69056328  0.00975474    -0.03300
C2855       C  0.69666149  0.65991494  0.01723076     0.02100
C2856       C  0.63487800  0.63317752  0.44686637     0.09000
N2857       N  0.67782144  0.69294717  0.42530926     0.65300
H2858       H  0.71499446  0.72822697  0.46702530     0.18200
N2859       N  0.70822973  0.65047561  0.04180852     0.75800
H2860       H  0.64242307  0.62762491  0.50698542     0.09800
C2861       C  0.63413491  0.60591413  0.44101853     0.03500
C2862       C  0.61297070  0.58511801  0.42063263    -0.05300
C2863       C  0.59238125  0.59105864  0.40551692    -0.23600
C2864       C  0.59256563  0.61809131  0.41240427     0.12700
C2865       C  0.61368798  0.63872058  0.43288004    -0.12800
N2866       N  0.65566734  0.59964623  0.45448165     0.64400
H2867       H  0.61333730  0.56478207  0.41599382     0.12200
N2868       N  0.57220540  0.62559220  0.39819037     0.61000
H2869       H  0.61368845  0.65922788  0.43768948     0.08400
O2870       O  0.73088155  0.64764868  0.03750395    -0.40400
O2871       O  0.69304527  0.64017846  0.06586351    -0.39600
O2872       O  0.66822552  0.71040559  0.41826139    -0.39600
O2873       O  0.69160883  0.68652221  0.40568975    -0.37300
O2874       O  0.54672355  0.61650315  0.40982316    -0.38200
O2875       O  0.58152633  0.64548211  0.37770731    -0.34400
O2876       O  0.67028230  0.58052971  0.95911577    -0.35800
O2877       O  0.69154983  0.61578616  0.92490739    -0.40100
C2878       C  0.84718213  0.80338645  0.21004921    -0.13800
C2879       C  0.85883273  0.83256811  0.19848467     0.16600
C2880       C  0.84967094  0.83657905  0.16937671     0.02900
C2881       C  0.82752869  0.81172447  0.15356478    -0.12300
C2882       C  0.81417964  0.78286689  0.16636075    -0.03300
C2883       C  0.82477677  0.77865681  0.19449190     0.02100
C2884       C  0.87871230  0.85819622  0.21832911     0.09000
N2885       N  0.86117845  0.86575949  0.15632545     0.65300
H2886       H  0.81971008  0.81527333  0.13187949     0.18200
N2887       N  0.81302700  0.74946750  0.20759330     0.75800
H2888       H  0.85495236  0.79986979  0.23178214     0.09800
C2889       C  0.86969968  0.86007439  0.24823782     0.03500
C2890       C  0.88962761  0.88243346  0.26783853    -0.05300
C2891       C  0.91856432  0.90370835  0.25830216    -0.23600
C2892       C  0.92730844  0.90265443  0.22799570     0.12700
C2893       C  0.90749178  0.87968040  0.20845995    -0.12800
N2894       N  0.84033029  0.83926841  0.25915435     0.64400
H2895       H  0.88219279  0.88314207  0.29089318     0.12200
N2896       N  0.95649571  0.92388788  0.21708604     0.61000
H2897       H  0.91506228  0.87807936  0.18576757     0.08400
O2898       O  0.79722810  0.74283116  0.23139974    -0.40400
O2899       O  0.82329621  0.73293434  0.19920503    -0.39600
O2900       O  0.88354570  0.87575936  0.13880784    -0.39600
O2901       O  0.84472739  0.87741465  0.15551385    -0.37300
O2902       O  0.97730295  0.91777041  0.21834978    -0.38200
O2903       O  0.96012896  0.94621836  0.20173948    -0.34400
O2904       O  0.83715629  0.82136551  0.28042396    -0.35800
O2905       O  0.81845078  0.84234498  0.25140954    -0.40100
C2906       C  0.62889860  0.60432360  0.22651383    -0.13800
C2907       C  0.64035506  0.63499584  0.23165688     0.16600
C2908       C  0.62934955  0.64425234  0.25626746     0.02900
C2909       C  0.60773354  0.62274445  0.27575773    -0.12300
C2910       C  0.59633761  0.59195210  0.27078776    -0.03300
C2911       C  0.60686283  0.58277706  0.24565442     0.02100
C2912       C  0.66503577  0.65684848  0.21209878     0.09000
N2913       N  0.63965556  0.67533740  0.26151168     0.65300
H2914       H  0.60012230  0.63017800  0.29514626     0.18200
N2915       N  0.59468105  0.55171136  0.23868681     0.75800
H2916       H  0.63714564  0.59710428  0.20746927     0.09800
C2917       C  0.69452547  0.67289971  0.22327729     0.03500
C2918       C  0.71773409  0.69262530  0.20408966    -0.05300
C2919       C  0.71231586  0.69660217  0.17342498    -0.23600
C2920       C  0.68252622  0.68063871  0.16236257     0.12700
C2921       C  0.65926463  0.66077440  0.18167753    -0.12800
N2922       N  0.70153581  0.66827042  0.25365495     0.64400
H2923       H  0.74005396  0.70406754  0.21305819     0.12200
N2924       N  0.67523686  0.68503842  0.13205214     0.61000
H2925       H  0.63669344  0.64864650  0.17305701     0.08100
O2926       O  0.61198346  0.54164242  0.23296725    -0.40400
O2927       O  0.56700531  0.53562593  0.23341751    -0.39600
O2928       O  0.62996502  0.68870621  0.24496440    -0.39600
O2929       O  0.65341665  0.68757362  0.28587198    -0.37300
O2930       O  0.66698361  0.66426606  0.11266362    -0.38200
O2931       O  0.67201183  0.70728226  0.12628960    -0.34400
O2932       O  0.70166049  0.64442140  0.26003553    -0.35800
O2933       O  0.71285398  0.68992292  0.27219681    -0.40100
C2934       C  0.72938218  0.71693256  0.65449777     0.80800
N2935       N  0.72717268  0.71781484  0.62350033    -0.77500
C2936       C  0.75048405  0.73958782  0.60717240     0.83200
N2937       N  0.77537331  0.76036039  0.62196537    -0.77400
C2938       C  0.77775169  0.75949331  0.65264251     0.83300
N2939       N  0.75473587  0.73773049  0.66874643    -0.79200
C2940       C  0.72572045  0.72300625  0.52628376     0.80800
N2941       N  0.72622861  0.72043262  0.55717611    -0.77500
C2942       C  0.74943000  0.74183679  0.57374055     0.83200
N2943       N  0.77224589  0.76586165  0.55928173    -0.77400
C2944       C  0.77194481  0.76880253  0.52854109     0.83300
N2945       N  0.74859517  0.74730676  0.51240627    -0.79200
C2946       C  0.74223903  0.97192814  0.64964723     0.80800
N2947       N  0.74188749  0.96855310  0.61880042    -0.77500
C2948       C  0.71862904  0.96605906  0.60185187     0.83200
N2949       N  0.69554530  0.96692438  0.61588217    -0.77400
C2950       C  0.69581399  0.97059891  0.64653097     0.83300
N2951       N  0.71921371  0.97327436  0.66313338    -0.79200
C2952       C  0.74269246  0.96550045  0.52194359     0.80800
N2953       N  0.71898995  0.96368270  0.50644152    -0.77500
C2954       C  0.69512675  0.96171885  0.52151587     0.83200
N2955       N  0.69531922  0.96220023  0.55242622    -0.77400
C2956       C  0.71869982  0.96388239  0.56834965     0.83300
N2957       N  0.74253562  0.96562382  0.55305309    -0.79200
C2958       C  0.97324984  0.73098468  0.65159752     0.80800
N2959       N  0.97597430  0.73285530  0.62060596    -0.77500
C2960       C  0.97741989  0.71102605  0.60451025     0.83200
N2961       N  0.97634172  0.68746888  0.61934645    -0.77400
C2962       C  0.97382281  0.68528514  0.65001271     0.83300
N2963       N  0.97213550  0.70700347  0.66599827    -0.79200
C2964       C  0.98631527  0.73709843  0.52436373     0.80800
N2965       N  0.98883614  0.71497903  0.51017464    -0.77500
C2966       C  0.98700033  0.69155499  0.52610697     0.83200
N2967       N  0.98299761  0.69042931  0.55668458    -0.77400
C2968       C  0.98084955  0.71253592  0.57130649     0.83300
N2969       N  0.98235173  0.73575741  0.55511594    -0.79200
O2970       O  0.92705127  0.51376323  0.80169672    -0.87600
C2971       C  0.57378000  0.56359472  0.88908652     1.12400
O2972       O  0.95672708  0.98110754  0.83606924    -1.35400
O2973       O  0.55794226  0.57306987  0.81271391    -0.89100
O2974       O  0.89732642  0.95772304  0.80141434    -0.89700
O2975       O  0.95751449  0.95125498  0.77102296    -0.78600
O2976       O  0.99384251  0.54411346  0.80842212    -1.00700
C2977       C  0.54331329  0.97881235  0.78283153     1.22500
O2978       O  0.98740717  0.94920028  0.83543835    -1.35500
Mn2979     Mn  0.98703757  0.97972056  0.86943391     1.82100
O2980       O  0.52160061  0.98154938  0.77428529    -0.77600
O2981       O  0.57994534  0.54531148  0.80820818    -0.87000
C2982       C  0.54246995  0.97934032  0.89481449     1.13600
C2983       C  0.57716333  0.56774403  0.80076730     1.08300
O2984       O  0.95532346  0.94781706  0.89981752    -0.78600
O2985       O  0.51914547  0.51083626  0.84170544    -1.32300
O2986       O  0.92853801  0.92162744  0.86322479    -0.97800
C2987       C  0.98671065  0.89376909  0.78929156     1.07000
Mn2988     Mn  0.56077567  0.51180720  0.84204151     1.48600
O2989       O  0.96214625  0.88963300  0.80029662    -0.87000
Mn2990     Mn  0.91435411  0.94142271  0.83508092     1.49600
O2991       O  0.92549540  0.51213923  0.86991300    -0.90900
C2992       C  0.99337172  0.53843989  0.78123114     1.20200
C2993       C  0.90095834  0.98036692  0.88079671     1.12300
Mn2994     Mn  0.98824950  0.98152948  0.80306377     1.81000
O2995       O  0.54726521  0.97903692  0.86754447    -0.96000
Mn2996     Mn  0.95892405  0.52569908  0.83632083     1.49300
C2997       C  0.90190096  0.98315399  0.79221484     1.08800
Mn2998     Mn  0.52815915  0.94541616  0.83833824     1.49900
C2999       C  0.98690480  0.89224722  0.87848158     1.11700
O3000       O  0.92959274  0.92323460  0.80627958    -1.01800
O3001       O  0.57868004  0.54413399  0.87662462    -0.91500
C3002       C  0.93417114  0.92791192  0.77904065     1.23000
O3003       O  0.54749957  0.97903816  0.81015837    -1.02200
O3004       O  0.55303422  0.56834845  0.88024604    -0.89600
O3005       O  0.51186745  0.91226885  0.87218216    -0.89200
O3006       O  0.89633595  0.95561729  0.86957496    -0.89200
Mn3007     Mn  0.52272677  0.55380789  0.84377226     1.47900
O3008       O  0.51851952  0.97806533  0.90262618    -0.77700
C3009       C  0.93216800  0.92487319  0.89063859     1.16000
O3010       O  0.99200012  0.51435535  0.77358242    -0.76400
O3011       O  0.98812146  0.51223014  0.90168843    -0.76100
Mn3012     Mn  0.94740798  0.90706194  0.83464120     1.51100
O3013       O  0.51359215  0.91296315  0.80326750    -0.88400
O3014       O  0.99120105  0.54073839  0.86576938    -0.95900
O3015       O  0.96188045  0.88815266  0.86854994    -0.91000
C3016       C  0.98933187  0.53604882  0.89302422     1.13800
C3017       C  0.48625454  0.60118890  0.93069019    -0.13800
C3018       C  0.98669718  0.59971630  0.95502632     0.16600
C3019       C  0.97607337  0.56990646  0.96439259     0.02900
C3020       C  0.97716966  0.54928019  0.94418482    -0.12300
C3021       C  0.98804428  0.55789458  0.91427740    -0.03300
C3022       C  0.48718977  0.58138008  0.90971399     0.02100
C3023       C  0.98514254  0.62196051  0.97494480     0.09000
N3024       N  0.96221557  0.55987448  0.99351364     0.65300
H3025       H  0.96899070  0.52645425  0.95165267     0.18200
N3026       N  0.49143523  0.59002907  0.87845422     0.75800
H3027       H  0.48908586  0.62236973  0.92270233     0.09800
C3028       C  0.50173401  0.64289189  0.98860535     0.03500
C3029       C  0.49692755  0.67180702  0.48406280    -0.05300
C3030       C  0.99010860  0.66798745  0.51022163    -0.23600
C3031       C  0.96164985  0.65170572  0.98608231     0.12700
C3032       C  0.96253533  0.62893522  0.96959892    -0.12800
N3033       N  0.52158576  0.66002069  0.44345392     0.64400
H3034       H  0.51127775  0.69530505  0.47870355     0.12200
N3035       N  0.93837186  0.65834055  0.97987819     0.61000
H3036       H  0.94588827  0.61704593  0.95212930     0.08400
O3037       O  0.51713123  0.60949430  0.86935762    -0.40400
O3038       O  0.46882566  0.58324160  0.86200062    -0.39600
O3039       O  0.93488707  0.55178304  0.99677132    -0.39600
O3040       O  0.97786494  0.56211639  0.01656265    -0.37300
O3041       O  0.94145034  0.67596978  0.95837379    -0.38200
O3042       O  0.91299669  0.64265873  0.99205122    -0.34400
O3043       O  0.51591748  0.66705400  0.41773821    -0.35800
O3044       O  0.54709846  0.64574903  0.00030845    -0.40100
C3045       C  0.01236096  0.85219110  0.93427497    -0.13800
C3046       C  0.98499649  0.83049738  0.94661503     0.16600
C3047       C  0.95851704  0.82994649  0.93774739     0.02900
C3048       C  0.95969207  0.85071252  0.91627388    -0.12300
C3049       C  0.98700234  0.87194925  0.90279780    -0.03300
C3050       C  0.01369548  0.87267627  0.91242997     0.02100
C3051       C  0.98442081  0.80719198  0.96681761     0.09000
N3052       N  0.93012975  0.80751111  0.94929793     0.65300
H3053       H  0.93890338  0.84959255  0.90957072     0.18200
N3054       N  0.04225542  0.89308938  0.89950321     0.75800
H3055       H  0.03280933  0.85252393  0.94088695     0.09800
C3056       C  0.98671081  0.78332740  0.95433905     0.03500
C3057       C  0.98695570  0.76178065  0.97346491    -0.05300
C3058       C  0.98671008  0.76149881  0.50580673    -0.23600
C3059       C  0.98845597  0.78754982  0.51878766     0.12700
C3060       C  0.98311704  0.80949961  0.99858870    -0.12800
N3061       N  0.98896084  0.78077141  0.92210902     0.64400
H3062       H  0.98852979  0.74366122  0.96288303     0.12200
N3063       N  0.47861794  0.78850034  0.55002676     0.61000
H3064       H  0.46578027  0.81887600  0.00794057     0.08400
O3065       O  0.04989677  0.88653464  0.87462767    -0.40400
O3066       O  0.06189579  0.91382890  0.91578484    -0.39600
O3067       O  0.93373132  0.83175447  0.48791227    -0.39600
O3068       O  0.91635671  0.79511385  0.45492216    -0.37300
O3069       O  0.50421629  0.80399593  0.56185710    -0.38200
O3070       O  0.45560758  0.78232874  0.56548148    -0.34400
O3071       O  0.01437882  0.79046483  0.91006036    -0.35800
O3072       O  0.96566972  0.76446371  0.90672206    -0.40100
C3073       C  0.49092761  0.62354746  0.67033346    -0.13800
C3074       C  0.97060701  0.61089173  0.69774333     0.16600
C3075       C  0.95521764  0.62499596  0.70892345     0.02900
C3076       C  0.95636437  0.64905466  0.69299084    -0.12300
C3077       C  0.97263969  0.65929528  0.66572893    -0.03300
C3078       C  0.49085414  0.64660062  0.65322717     0.02100
C3079       C  0.97654818  0.59160832  0.71787656     0.09000
N3080       N  0.93878524  0.61537897  0.73681136     0.65300
H3081       H  0.94466511  0.65978979  0.70205695     0.18200
N3082       N  0.50466714  0.65350022  0.62382843     0.75800
H3083       H  0.50166588  0.61195658  0.66109516     0.09800
C3084       C  0.96329965  0.56048231  0.71351147     0.03500
C3085       C  0.97000657  0.54354849  0.73373202    -0.05300
C3086       C  0.99016120  0.55745015  0.75805054    -0.23600
C3087       C  0.00459930  0.58891967  0.76107166     0.12700
C3088       C  0.99742183  0.60557148  0.74126846    -0.12800
N3089       N  0.94263440  0.54581153  0.68914833     0.64400
H3090       H  0.95870131  0.51941773  0.73101474     0.12200
N3091       N  0.02830196  0.60471585  0.78239643     0.61000
H3092       H  0.00867550  0.62972723  0.74378958     0.08400
O3093       O  0.49211369  0.63557833  0.60194936    -0.40400
O3094       O  0.53151896  0.67427956  0.62115337    -0.39600
O3095       O  0.95024055  0.62974595  0.76110027    -0.39600
O3096       O  0.91131222  0.59586350  0.73616194    -0.37300
O3097       O  0.05474477  0.61390602  0.77352417    -0.38200
O3098       O  0.02417326  0.61808106  0.80429060    -0.34400
O3099       O  0.95114051  0.53829601  0.66545796    -0.35800
O3100       O  0.91512330  0.53647702  0.69311658    -0.40100
C3101       C  0.51077601  0.85271216  0.73310704    -0.13800
C3102       C  0.97748055  0.82971014  0.71997494     0.16600
C3103       C  0.95250486  0.83106740  0.73055259     0.02900
C3104       C  0.95631537  0.85280210  0.75206020    -0.12300
C3105       C  0.98485276  0.87341837  0.76389618    -0.03300
C3106       C  0.51367811  0.87323150  0.75577132     0.02100
C3107       C  0.97391731  0.80383168  0.70186579     0.09000
N3108       N  0.92298599  0.80979122  0.72047103     0.65300
H3109       H  0.93643829  0.85286614  0.76010850     0.18200
N3110       N  0.54195951  0.88989092  0.77083670     0.75800
H3111       H  0.52986357  0.85015324  0.72773945     0.09800
C3112       C  0.47579045  0.80580294  0.66920245     0.03500
C3113       C  0.47464831  0.78147458  0.65344089    -0.05300
C3114       C  0.97243758  0.75537211  0.66945785    -0.23600
C3115       C  0.96925123  0.75426988  0.70169446     0.12700
C3116       C  0.97007326  0.77837905  0.71739743    -0.12800
N3117       N  0.47392196  0.82859290  0.65237697     0.64400
H3118       H  0.47191099  0.78053615  0.62903993     0.12200
N3119       N  0.96559884  0.72918041  0.71912934     0.61000
H3120       H  0.96827494  0.77747776  0.74195683     0.08400
O3121       O  0.56496695  0.90664281  0.75529270    -0.40400
O3122       O  0.54512015  0.88218099  0.79729387    -0.39600
O3123       O  0.90640781  0.78756941  0.73710617    -0.39600
O3124       O  0.91175844  0.81605688  0.69803562    -0.37300
O3125       O  0.98826661  0.72965769  0.73066249    -0.38200
O3126       O  0.93974514  0.70940808  0.72757782    -0.34400
O3127       O  0.49771254  0.85169150  0.64403734    -0.35800
O3128       O  0.44936637  0.82271210  0.64026200    -0.40100
C3129       C  0.78597653  0.95567469  0.95906054    -0.13800
C3130       C  0.81496185  0.97090567  0.97118016     0.16600
C3131       C  0.81943646  0.98356670  0.00051563     0.02900
C3132       C  0.77831134  0.98943039  0.47915329    -0.12300
C3133       C  0.76933033  0.97015082  0.50454176    -0.03300
C3134       C  0.76136457  0.95227663  0.97577043     0.02100
C3135       C  0.84003076  0.97409702  0.95193239     0.09000
N3136       N  0.80906241  0.01160582  0.43386700     0.65300
H3137       H  0.76633847  0.00104489  0.47324554     0.18200
N3138       N  0.75541254  0.49799748  0.95909815     0.75800
H3139       H  0.80092506  0.49787112  0.93265643     0.09800
C3140       C  0.84139561  0.94871291  0.94238719     0.03500
C3141       C  0.86212735  0.95151340  0.92021911    -0.05300
C3142       C  0.88123751  0.97931169  0.90623392    -0.23600
C3143       C  0.88022383  0.00496756  0.91639028     0.12700
C3144       C  0.86010405  0.00217166  0.93945414    -0.12800
N3145       N  0.82064612  0.91958267  0.95379143     0.64400
H3146       H  0.86243768  0.93155004  0.91327076     0.12200
N3147       N  0.89747212  0.03351980  0.90194334     0.61000
H3148       H  0.85868030  0.02162090  0.94605410     0.08400
O3149       O  0.73917556  0.48311392  0.93689808    -0.40400
O3150       O  0.75905861  0.52367155  0.96466921    -0.39600
O3151       O  0.79818713  0.99944268  0.40848858    -0.39600
O3152       O  0.85910973  0.98625734  0.02850386    -0.37300
O3153       O  0.92531651  0.56316366  0.91321018    -0.38200
O3154       O  0.89406942  0.54917571  0.87512361    -0.34400
O3155       O  0.79719442  0.90292417  0.93878318    -0.35800
O3156       O  0.82813388  0.90870339  0.97558921    -0.40100
C3157       C  0.63827777  0.95864216  0.96512182    -0.13800
C3158       C  0.63045994  0.97943170  0.97590354     0.16600
C3159       C  0.63587881  0.48777111  0.00604009     0.02900
C3160       C  0.65917308  0.48404270  0.51822904    -0.12300
C3161       C  0.67067325  0.96243497  0.50457273    -0.03300
C3162       C  0.65854955  0.95303815  0.98089410     0.02100
C3163       C  0.60968937  0.98483304  0.95709591     0.09000
N3164       N  0.62610378  0.50738468  0.01761186     0.65300
H3165       H  0.66282946  0.49043267  0.54198617     0.18200
N3166       N  0.66396187  0.92997706  0.96992103     0.75800
H3167       H  0.62800709  0.94619138  0.94447094     0.09800
C3168       C  0.61626575  0.99268035  0.92612985     0.03500
C3169       C  0.59415967  0.99109254  0.90663925    -0.05300
C3170       C  0.56525314  0.98225324  0.91735532    -0.23600
C3171       C  0.55919028  0.97641742  0.94886862     0.12700
C3172       C  0.58136019  0.97753577  0.96842265    -0.12800
N3173       N  0.64523827  0.00155163  0.91394079     0.64400
H3174       H  0.59970819  0.99660804  0.88287355     0.12200
N3175       N  0.53022954  0.96752983  0.96104784     0.61000
H3176       H  0.57589514  0.97109626  0.99201148     0.08400
O3177       O  0.66619877  0.92704882  0.94161120    -0.40400
O3178       O  0.66023565  0.90905182  0.98764629    -0.39600
O3179       O  0.60361647  0.48415687  0.53936363    -0.39600
O3180       O  0.63776588  0.53389576  0.00767385    -0.37300
O3181       O  0.51046723  0.94009590  0.96181920    -0.38200
O3182       O  0.52576053  0.98650440  0.97471381    -0.34400
O3183       O  0.64831368  0.98491027  0.89490231    -0.35800
O3184       O  0.66656689  0.02787271  0.91842380    -0.40100
C3185       C  0.85286895  0.00496252  0.74665512    -0.13800
C3186       C  0.83720070  0.97978808  0.72781447     0.16600
C3187       C  0.84486989  0.95705659  0.72847242     0.02900
C3188       C  0.86672193  0.95906654  0.74881828    -0.12300
C3189       C  0.88164122  0.98371452  0.76853317    -0.03300
C3190       C  0.87498765  0.00722480  0.76678999     0.02100
C3191       C  0.81289287  0.97766461  0.70785862     0.09000
N3192       N  0.83048568  0.93159792  0.70883899     0.65300
H3193       H  0.87174292  0.94098025  0.74943269     0.18200
N3194       N  0.88931375  0.03285176  0.78632412     0.75800
H3195       H  0.84783054  0.02301665  0.74580593     0.09800
C3196       C  0.78878935  0.97991147  0.71998993     0.03500
C3197       C  0.76657714  0.97854888  0.70060591    -0.05300
C3198       C  0.76721167  0.97419945  0.66893924    -0.23600
C3199       C  0.79138711  0.97174264  0.65694229     0.12700
C3200       C  0.81408883  0.97403905  0.67630214    -0.12800
N3201       N  0.78594692  0.98250093  0.75213402     0.64400
H3202       H  0.74839171  0.98032296  0.71074625     0.12200
N3203       N  0.81175528  0.51018307  0.62672477     0.61000
H3204       H  0.84795262  0.50540062  0.66634150     0.08400
O3205       O  0.87473003  0.03585911  0.80777256    -0.40400
O3206       O  0.91460561  0.05459731  0.77912152    -0.39600
O3207       O  0.84391389  0.93087326  0.68511304    -0.39600
O3208       O  0.80811915  0.90777447  0.71835392    -0.37300
O3209       O  0.81350553  0.53513386  0.62151390    -0.38200
O3210       O  0.82267139  0.49985434  0.60776430    -0.34400
O3211       O  0.79001733  0.00692293  0.76312102    -0.35800
O3212       O  0.77421219  0.95917839  0.76846742    -0.40100
C3213       C  0.61920964  0.95227984  0.67597378    -0.13800
C3214       C  0.62697977  0.97628008  0.69616451     0.16600
C3215       C  0.65719565  0.99943888  0.69790967     0.02900
C3216       C  0.67920263  0.99725880  0.68133700    -0.12300
C3217       C  0.67157243  0.97285077  0.66192971    -0.03300
C3218       C  0.64121759  0.95062963  0.65861970     0.02100
C3219       C  0.60429842  0.97525072  0.71783704     0.09000
N3220       N  0.66575978  0.02564841  0.71593057     0.65300
H3221       H  0.70233938  0.01481630  0.68346931     0.18200
N3222       N  0.63271134  0.92514308  0.63950825     0.75800
H3223       H  0.59627951  0.93415869  0.67466487     0.09800
C3224       C  0.57683032  0.97218811  0.70806127     0.03500
C3225       C  0.55647662  0.97180264  0.72958495    -0.05300
C3226       C  0.56334282  0.97521652  0.76092244    -0.23600
C3227       C  0.59005451  0.97627334  0.77069688     0.12700
C3228       C  0.61010201  0.97632476  0.74921515    -0.12800
N3229       N  0.57318457  0.47398800  0.67969101     0.64400
H3230       H  0.53747602  0.47120877  0.72399615     0.12200
N3231       N  0.59753177  0.97777767  0.80231571     0.61000
H3232       H  0.63039429  0.97728614  0.75712103     0.08400
O3233       O  0.62174820  0.92401686  0.61347087    -0.40400
O3234       O  0.63239969  0.90220909  0.65016072    -0.39600
O3235       O  0.68143293  0.03020370  0.73958437    -0.39600
O3236       O  0.66316237  0.04686286  0.70484468    -0.37300
O3237       O  0.61563069  0.00267486  0.81431487    -0.38200
O3238       O  0.58724536  0.95401591  0.81788290    -0.34400
O3239       O  0.55230991  0.45079987  0.66727706    -0.35800
O3240       O  0.58504102  0.49862534  0.66550137    -0.40100
C3241       C  0.85382456  0.82581941  0.99772772    -0.13800
C3242       C  0.84402643  0.83629702  0.97316436     0.16600
C3243       C  0.81293367  0.82222581  0.96705079     0.02900
C3244       C  0.79267318  0.79795442  0.98485975    -0.12300
C3245       C  0.79613469  0.79534236  0.51227231    -0.03300
C3246       C  0.82613150  0.81132634  0.52274761     0.02100
C3247       C  0.86655912  0.85981404  0.95261202     0.09000
N3248       N  0.80125753  0.83260769  0.94338856     0.65300
H3249       H  0.76905051  0.78748604  0.97976051     0.18200
N3250       N  0.83493592  0.80282233  0.55018610     0.75800
H3251       H  0.87743319  0.83551320  0.00217116     0.09800
C3252       C  0.88993719  0.88757132  0.96354094     0.03500
C3253       C  0.91124643  0.90839952  0.94317839    -0.05300
C3254       C  0.90971486  0.90218996  0.91180294    -0.23600
C3255       C  0.88647112  0.87415066  0.90107721     0.12700
C3256       C  0.86569489  0.85329355  0.92148773    -0.12800
N3257       N  0.89241022  0.89503163  0.99520355     0.64400
H3258       H  0.92876454  0.92951433  0.95192363     0.12200
N3259       N  0.88371795  0.86607918  0.86954568     0.61000
H3260       H  0.84921570  0.83165436  0.91296507     0.08400
O3261       O  0.83894085  0.81783163  0.57424038    -0.40400
O3262       O  0.84356845  0.78382756  0.54910991    -0.39600
O3263       O  0.79603488  0.82019945  0.91754387    -0.39600
O3264       O  0.78751287  0.84612191  0.95089419    -0.37300
O3265       O  0.89422456  0.85006214  0.86012802    -0.38200
O3266       O  0.86608233  0.86997947  0.85272390    -0.34400
O3267       O  0.90182300  0.91215001  0.51361867    -0.35800
O3268       O  0.86431818  0.91540880  0.49500748    -0.40100
C3269       C  0.67343460  0.63811880  0.99933395    -0.13800
C3270       C  0.66259221  0.64640954  0.97397525     0.16600
C3271       C  0.67455121  0.67710372  0.96717155     0.02900
C3272       C  0.69780993  0.69880482  0.98490480    -0.12300
C3273       C  0.70101541  0.69976617  0.50715482    -0.03300
C3274       C  0.67967370  0.67099741  0.51823871     0.02100
C3275       C  0.63871632  0.62298513  0.95481718     0.09000
N3276       N  0.66378850  0.68657552  0.94187529     0.65300
H3277       H  0.70701677  0.72223865  0.97911081     0.18200
N3278       N  0.67891915  0.66312638  0.54959300     0.75800
H3279       H  0.66407265  0.61466593  0.00503698     0.09800
C3280       C  0.64276718  0.60128668  0.93942987     0.03500
C3281       C  0.62069577  0.58123798  0.91933912    -0.05300
C3282       C  0.59438577  0.58247204  0.91392296    -0.23600
C3283       C  0.58980971  0.60322728  0.93095843     0.12700
C3284       C  0.61181388  0.62301459  0.95117893    -0.12800
N3285       N  0.66989833  0.60042493  0.94261795     0.64400
H3286       H  0.62488914  0.56551973  0.90706158     0.12200
N3287       N  0.56300742  0.60465677  0.92848120     0.61000
H3288       H  0.60804493  0.63886913  0.96375247     0.08400
O3289       O  0.69150425  0.64865408  0.55789097    -0.40400
O3290       O  0.66096230  0.66533327  0.56746591    -0.39600
O3291       O  0.64725392  0.69775679  0.94658541    -0.39600
O3292       O  0.67503904  0.68881509  0.91579218    -0.37300
O3293       O  0.54411098  0.59360897  0.94975540    -0.38200
O3294       O  0.56307896  0.62464104  0.91175483    -0.34400
O3295       O  0.64717703  0.57792496  0.47272966    -0.35800
O3296       O  0.68231241  0.61298651  0.44489183    -0.40100
C3297       C  0.83747917  0.80440003  0.71171127    -0.13800
C3298       C  0.84870886  0.83369909  0.70053775     0.16600
C3299       C  0.83820693  0.83791472  0.67231723     0.02900
C3300       C  0.81600894  0.81317707  0.65653590    -0.12300
C3301       C  0.80367006  0.78407994  0.66845002    -0.03300
C3302       C  0.81492443  0.77966983  0.69610151     0.02100
C3303       C  0.87002920  0.85938129  0.71955781     0.09000
N3304       N  0.84801940  0.86721025  0.66039138     0.65300
H3305       H  0.80745398  0.81699561  0.63551534     0.18200
N3306       N  0.80402397  0.75027942  0.70840085     0.75800
H3307       H  0.84597290  0.80076846  0.73284929     0.09800
C3308       C  0.86253638  0.86254931  0.74968353     0.03500
C3309       C  0.88357618  0.88553134  0.76806588    -0.05300
C3310       C  0.91234963  0.90593576  0.75715249    -0.23600
C3311       C  0.91962838  0.90340720  0.72667811     0.12700
C3312       C  0.89856813  0.88000903  0.70826594    -0.12800
N3313       N  0.83359469  0.84251575  0.76205991     0.64400
H3314       H  0.87729588  0.88726268  0.79112049     0.12200
N3315       N  0.94857809  0.92350205  0.71446059     0.61000
H3316       H  0.90485979  0.87743415  0.68550772     0.08400
O3317       O  0.78750801  0.74222327  0.73174794    -0.40400
O3318       O  0.81488094  0.73450745  0.69917955    -0.39600
O3319       O  0.87043503  0.87899888  0.64289280    -0.39600
O3320       O  0.82974454  0.87671884  0.65977247    -0.37300
O3321       O  0.96848466  0.91608589  0.71443679    -0.38200
O3322       O  0.95249438  0.94590849  0.69906792    -0.34400
O3323       O  0.83083393  0.82355683  0.78195372    -0.35800
O3324       O  0.81249813  0.84786986  0.75795636    -0.40100
C3325       C  0.62717626  0.60081856  0.73122015    -0.13800
C3326       C  0.63849284  0.63151508  0.73565697     0.16600
C3327       C  0.62882199  0.64128899  0.76093385     0.02900
C3328       C  0.60836035  0.62018882  0.78161777    -0.12300
C3329       C  0.59747166  0.58931129  0.77757772    -0.03300
C3330       C  0.60661824  0.57976541  0.75173335     0.02100
C3331       C  0.66132581  0.65288762  0.71424775     0.09000
N3332       N  0.64047677  0.67254916  0.76649904     0.65300
H3333       H  0.60172509  0.62804329  0.80138983     0.18200
N3334       N  0.59382683  0.54869811  0.74498797     0.75800
H3335       H  0.63413259  0.59317948  0.71150580     0.09800
C3336       C  0.69131834  0.66004043  0.71711498     0.03500
C3337       C  0.71291269  0.68059261  0.69707619    -0.05300
C3338       C  0.70502585  0.69374013  0.67340828    -0.23600
C3339       C  0.67473782  0.68595665  0.66999497     0.12700
C3340       C  0.65312326  0.66563927  0.69050370    -0.12800
N3341       N  0.70012179  0.64659214  0.74042851     0.64400
H3342       H  0.73595537  0.68619378  0.69993155     0.12200
N3343       N  0.66587020  0.69971755  0.64707514     0.61000
H3344       H  0.63006163  0.66011522  0.68817674     0.08100
O3345       O  0.61075067  0.53822509  0.73923212    -0.40400
O3346       O  0.56629133  0.53349994  0.73870889    -0.39600
O3347       O  0.62390660  0.68383270  0.76268172    -0.39600
O3348       O  0.66525120  0.68750618  0.78005692    -0.37300
O3349       O  0.64805223  0.68379902  0.62628702    -0.38200
O3350       O  0.67130752  0.72629528  0.65077909    -0.34400
O3351       O  0.69696981  0.62091276  0.73623244    -0.35800
O3352       O  0.71427497  0.66173326  0.76348362    -0.40100
loop_ 
_geom_bond_atom_site_label_1 
_geom_bond_atom_site_label_2 
_geom_bond_distance 
_geom_bond_site_symmetry_2 
_ccdc_geom_bond_type 
C1            N2   1.363       .  A
C1            N6   1.357       .  A
C1          C405   1.476       .  S
N2            C3   1.362       .  A
C3            N4   1.357       .  A
C3            C9   1.469       .  S
N4            C5   1.354       .  A
C5            N6   1.354       .  A
C5          C368   1.476       .  S
C7            N8   1.361       .  A
C7           N12   1.358       .  A
C7          C340   1.486       .  S
N8            C9   1.361       .  A
C9           N10   1.361       .  A
N10          C11   1.355       .  A
C11          N12   1.354       .  A
C11         C312   1.476       .  S
C13          N14   1.362       .  A
C13          N18   1.362       .  A
C13         C265   1.496       .  S
N14          C15   1.361       .  A
C15          N16   1.357       .  A
C15          C23   1.471       .  S
N16          C17   1.356       .  A
C17          N18   1.359       .  A
C17         C284   1.478       .  S
C19          N20   1.354       .  A
C19          N24   1.361       .  A
C19         C200   1.485       .  S
N20          C21   1.353       .  A
C21          N22   1.357       .  A
C21         C228   1.473       .  S
N22          C23   1.362       .  A
C23          N24   1.361       .  A
C25          N26   1.367       .  A
C25          N30   1.360       .  A
C25         C181   1.497       .  S
N26          C27   1.362       .  A
C27          N28   1.355       .  A
C27          C35   1.466       .  S
N28          C29   1.348       .  A
C29          N30   1.356       .  A
C29         C144   1.480       .  S
C31          N32   1.363       .  A
C31          N36   1.365       .  A
C31         C125   1.490       .  S
N32          C33   1.356       .  A
C33          N34   1.348       .  A
C33          C97   1.468       .  S
N34          C35   1.355       .  A
C35          N36   1.361       .  A
O37         Mn63   2.095       .  S
O37         C902   1.271   1_545  A
C38         C349   1.492       .  S
C38          O71   1.269       .  A
C38          O68   1.276       .  A
O39         Mn46   2.167       .  S
O39         Mn57   2.128       .  S
O39         Mn61   2.162       .  S
O39        Mn901   2.127       .  S
O40         Mn74   2.104       .  S
O40          C50   1.272       .  A
O41         Mn57   2.099       .  S
O41          C64   1.273       .  A
O42         Mn61   2.103       .  S
O42          C69   1.250       .  A
O43         Mn63   1.975       .  S
O43       Mn1750   1.967       .  S
O43          C59   1.219       .  S
C44         C293   1.487       .  S
C44          O47   1.253       .  A
C44          O70   1.215       .  S
O45         Mn46   2.168       .  S
O45         Mn79   2.120       .  S
O45         Mn61   2.170       .  S
O45       Mn1741   2.127       .  S
Mn46         O51   2.110       .  S
Mn46       O1751   2.116       .  S
Mn46        O916   2.111       .  S
Mn46       O2566   2.168       .  S
O47       Mn1737   2.108   1_455  S
O48         Mn55   2.069       .  S
O48          C50   1.265       .  A
C49         C237   1.476       .  S
C49          O75   1.252       .  A
C49          O62   1.218       .  S
C50         C396   1.465       .  S
O51          C76   1.255       .  A
O52         Mn55   2.130       .  S
O52         Mn74   2.127       .  S
O52       Mn2560   2.163   1_445  S
O52       Mn2575   2.154   1_445  S
O53         Mn57   1.968       .  S
O53         Mn79   1.970       .  S
O53          C76   1.220       .  S
C54         C172   1.492       .  S
C54          O56   1.273       .  A
C54        O1756   1.271       .  A
Mn55         O68   2.107       .  S
Mn55        O908   1.978   1_545  S
Mn55        O900   1.945   1_545  S
O56         Mn79   2.099       .  S
Mn57         O73   2.091       .  S
Mn57         O67   1.953       .  S
O58         Mn63   2.098       .  S
O58         C898   1.270   1_545  A
C59         C153   1.480       .  S
C59          O77   1.254       .  A
C60         C209   1.484       .  S
C60          O73   1.271       .  A
C60         O896   1.268       .  A
Mn61       O1723   2.101       .  S
Mn61        O915   2.102       .  S
Mn61       O2566   2.162       .  S
O62         Mn65   1.960       .  S
O62        Mn893   1.961       .  S
Mn63        O877   2.125   1_545  S
Mn63         O81   1.955       .  S
C64         C256   1.484       .  S
C64         O875   1.270       .  A
Mn65         O72   2.091       .  S
Mn65         O80   2.102       .  S
Mn65       O1721   2.127   1_455  S
Mn65         O70   1.946       .  S
C66         C116   1.494       .  S
C66          O82   1.274       .  A
C66        O1748   1.273       .  A
O67         Mn79   1.958       .  S
O67          C69   1.218       .  S
C69         C377   1.481       .  S
O70        Mn893   1.961       .  S
O71         Mn74   2.080       .  S
O72        C1742   1.271   1_455  A
Mn74       O1719   1.968   1_455  S
Mn74       O1757   1.974   1_455  S
O75       Mn1722   2.101   1_455  S
C76         C321   1.493       .  S
O77        Mn899   2.101   1_545  S
O78        Mn884   2.121   1_545  S
O78          C83   1.258       .  A
Mn79         O82   2.098       .  S
O80        C1730   1.272   1_455  A
O81       Mn1750   1.971       .  S
O81          C83   1.220       .  S
C83          C88   1.497       .  S
C84          C89   1.394       .  A
C84        C1761   1.392       .  A
C84          H94   1.082       .  S
C85          C90   1.483       .  S
C85          C86   1.407       .  A
C85        C1760   1.393       .  A
C86          C87   1.410       .  A
C86          N91   1.429       .  S
C87          C88   1.412       .  A
C87          H92   1.082       .  S
C88        C1765   1.423       .  A
C89        C1764   1.421       .  A
C89          N93   1.429       .  S
C90          C99   1.403       .  A
C90        C1771   1.409       .  A
N91         O106   1.262       .  A
N91         O107   1.262       .  A
N93         O104   1.260       .  A
N93         O105   1.260       .  A
C95        C1766   1.408   1_455  A
C95         C515   1.395   1_455  A
C95         N519   1.429       .  S
C96         C514   1.402   1_554  A
C96        C1773   1.406       .  A
C96         H101   1.083   1_655  S
C97        C1772   1.404       .  A
C97         C517   1.406   1_554  A
C98          C99   1.405       .  A
C98         C516   1.413       .  A
C98         N102   1.430       .  S
C99         H103   1.087       .  S
N100        C514   1.432   1_454  S
N100        O110   1.262   1_554  A
N100        O530   1.262       .  A
N102        O108   1.262       .  A
N102        O109   1.262       .  A
O111        N519   1.262       .  A
C112        C113   1.401       .  A
C112        C117   1.404       .  A
C112        H122   1.082       .  S
C113        C118   1.484       .  S
C113        C114   1.407       .  A
C114        C115   1.402       .  A
C114        N119   1.429       .  S
C115        C116   1.409       .  A
C115        H120   1.081       .  S
C116        C117   1.419       .  A
C117        N121   1.429       .  S
C118        C123   1.408       .  A
C118        C127   1.403       .  A
N119        O553   1.262       .  A
N119        O554   1.262       .  A
N121        O132   1.262       .  A
N121        O133   1.262       .  A
C123        C124   1.399       .  A
C123        N128   1.429       .  S
C124        C544   1.406       .  A
C124        H129   1.081       .  S
C125        C126   1.416       .  A
C125        C543   1.407   1_554  A
C126        C546   1.405   1_554  A
C126       N1806   1.428       .  S
C127        C545   1.407       .  A
C127       H1807   1.081       .  S
N128        O138   1.262       .  A
N128        O139   1.262       .  A
N130       C1802   1.428       .  S
N130        O136   1.262       .  A
N130        O137   1.262       .  A
H131       C1803   1.083   1_455  S
O134        N538   1.262       .  A
O135        N538   1.262       .  A
C140        C145   1.407       .  A
C140       C1817   1.404       .  A
C140        H150   1.080       .  S
C141        C146   1.480       .  S
C141        C142   1.411       .  A
C141       C1816   1.401       .  A
C142        C143   1.396       .  A
C142        N147   1.430       .  S
C143        C144   1.401       .  A
C143        H148   1.080       .  S
C144       C1821   1.416       .  A
C145       C1820   1.417       .  A
C145        N149   1.429   1_655  S
C146        C151   1.410       .  A
C146        C155   1.397       .  A
N147        O162   1.262       .  A
N147        O163   1.261       .  A
N149        O160   1.262   1_455  A
N149        O161   1.262       .  A
C151        C152   1.405       .  A
C151        N156   1.428       .  S
C152        C153   1.406       .  A
C152        H157   1.084       .  S
C153        C154   1.414       .  A
C154        C155   1.392       .  A
C154        N158   1.427       .  S
C155        H159   1.084       .  S
N156        O166   1.262       .  A
N156        O167   1.262       .  A
N158        O164   1.262       .  A
N158        O165   1.259       .  A
C168        C173   1.401       .  A
C168       C1845   1.402   1_455  A
C168        H178   1.082       .  S
C169        C174   1.487       .  S
C169        C170   1.410       .  A
C169       C1844   1.402       .  A
C170        C171   1.403       .  A
C170        N175   1.429       .  S
C171        C172   1.408       .  A
C171        H176   1.086       .  S
C172       C1849   1.417       .  A
C173       C1848   1.416   1_455  A
C173        N177   1.428       .  S
C174        C183   1.400       .  A
C174       C1855   1.410       .  A
N175        O190   1.262       .  A
N175        O191   1.262       .  A
N177        O188   1.261       .  A
N177        O189   1.262       .  A
C179        C180   1.406       .  A
C179       C1850   1.409       .  A
C179        N184   1.430       .  S
C180       C1857   1.410       .  A
C180        H185   1.080       .  S
C181        C182   1.420       .  A
C181       C1856   1.410       .  A
C182        C183   1.398       .  A
C182        N186   1.430       .  S
C183        H187   1.078       .  S
N184        O194   1.262   1_655  A
N184        O195   1.262       .  A
N186        O192   1.262       .  A
N186        O193   1.262       .  A
C196        C197   1.401       .  A
C196        C201   1.403       .  A
C196       H1044   1.082       .  S
C197        C202   1.477       .  S
C197        C198   1.408       .  A
C198        C618   1.399       .  A
C198        N622   1.431       .  S
C199        C200   1.406       .  A
C199        C617   1.405       .  A
C199        H204   1.080       .  S
C200        C620   1.416   1_554  A
C201        C619   1.413       .  A
C201       N1043   1.432       .  S
C202        C207   1.407       .  A
C202        C211   1.402       .  A
N203        C617   1.431       .  S
N203        O218   1.262       .  A
N203        O638   1.262       .  A
N205       C1039   1.429       .  S
N205        O216   1.261       .  A
N205        O217   1.262       .  A
H206       C1034   1.082       .  S
C207        C208   1.399       .  A
C207        N212   1.431       .  S
C208        C209   1.408       .  A
C208        H213   1.079       .  S
C209        C210   1.413       .  A
C210        C211   1.398       .  A
C210        N214   1.429       .  S
C211        H215   1.083       .  S
N212        O222   1.262       .  A
N212        O223   1.262       .  A
N214       O1058   1.262       .  A
N214       O1059   1.261       .  A
O219        N622   1.262       .  A
O220       N1052   1.261       .  A
O221       N1052   1.261       .  A
C224        C225   1.404       .  A
C224        C229   1.398       .  A
C224        H234   1.080       .  S
C225        C230   1.487       .  S
C225       C1064   1.410       .  A
C226       C1063   1.411       .  A
C226        C646   1.403       .  A
C226        N231   1.428   1_565  S
C227        C645   1.402   1_554  A
C227       C1066   1.405       .  A
C227        H232   1.081   1_565  S
C228       C1065   1.401   1_554  A
C228        C648   1.409       .  A
C229        C647   1.415       .  A
C229        N233   1.430       .  S
C230        C235   1.412       .  A
C230        C239   1.406       .  A
N231        O247   1.261       .  A
N231        O665   1.262   1_545  A
N233        O244   1.262       .  A
N233        O245   1.262       .  A
C235        C236   1.394       .  A
C235        N240   1.430       .  S
C236        C237   1.403       .  A
C236        H241   1.085       .  S
C237        C238   1.410       .  A
C238        C239   1.402       .  A
C238        N242   1.429       .  S
C239        H243   1.083       .  S
N240        O250   1.262       .  A
N240        O251   1.262       .  A
N242        O248   1.261       .  A
N242        O249   1.262       .  A
O246        N650   1.262   1_565  A
C252        C253   1.401       .  A
C252        C257   1.402       .  A
C252        H262   1.077       .  S
C253        C258   1.482       .  S
C253        C254   1.406       .  A
C254        C255   1.402       .  A
C254        N259   1.426       .  S
C255        C256   1.406       .  A
C255        H260   1.078       .  S
C256        C257   1.416       .  A
C257        N261   1.430       .  S
C258        C263   1.406       .  A
C258        C267   1.401       .  A
N259        O274   1.261       .  A
N259        O275   1.262       .  A
N261        O272   1.262       .  A
N261        O273   1.262       .  A
C263        C264   1.400       .  A
C263        N268   1.429       .  S
C264        C265   1.409       .  A
C264        H269   1.078       .  S
C265        C266   1.420       .  A
C266        C267   1.406       .  A
C266       N1108   1.429       .  S
C267       H1109   1.079       .  S
N268        O278   1.262       .  A
N268        O279   1.262       .  A
N270       C1104   1.429       .  S
N270        O276   1.262       .  A
N270        O277   1.262       .  A
H271       C1105   1.083       .  S
C280        C281   1.405       .  A
C280        C285   1.401       .  A
C280        H290   1.079       .  S
C281        C286   1.486       .  S
C281        C282   1.412       .  A
C282        C283   1.403       .  A
C282        N287   1.431       .  S
C283        C284   1.404       .  A
C283        H288   1.080       .  S
C284        C285   1.409       .  A
C285        N289   1.429       .  S
C286        C291   1.412       .  A
C286        C295   1.400       .  A
N287        O302   1.262       .  A
N287        O303   1.262       .  A
N289        O300   1.262       .  A
N289        O301   1.262       .  A
C291        C292   1.405       .  A
C291       N1134   1.430       .  S
C292        C293   1.406       .  A
C292       H1135   1.083       .  S
C293        C294   1.417       .  A
C294        C295   1.397       .  A
C294        N298   1.430       .  S
C295        H299   1.084       .  S
N296       C1129   1.431       .  S
N296        O306   1.262       .  A
N296        O307   1.262       .  A
H297       C1130   1.082       .  S
N298        O304   1.262       .  A
N298        O305   1.262       .  A
C308        C309   1.405       .  A
C308        C732   1.406       .  A
C308        H318   1.078       .  S
C309        C314   1.493       .  S
C309        C310   1.413       .  A
C310        C311   1.401       .  A
C310        N315   1.429       .  S
C311        C731   1.403       .  A
C311        H316   1.080       .  S
C312        C313   1.408       .  A
C312        C730   1.400   1_554  A
C313        C727   1.404   1_554  A
C313        N317   1.429       .  S
C314        C319   1.412       .  A
C314        C323   1.402       .  A
N315        O330   1.262       .  A
N315        O331   1.262       .  A
N317        O328   1.262       .  A
N317        O329   1.262       .  A
C319        C320   1.408       .  A
C319        N324   1.429       .  S
C320        C321   1.408       .  A
C320        H325   1.078       .  S
C321        C322   1.417       .  A
C322        C323   1.399       .  A
C322        N326   1.429       .  S
C323        H327   1.078       .  S
N324        O753   1.262       .  A
N324        O754   1.262       .  A
N326        O332   1.262       .  A
N326        O333   1.262       .  A
O334        N743   1.262   1_554  A
O335        N743   1.262   1_554  A
C336        C337   1.400       .  A
C336        C760   1.404       .  A
C336        H346   1.079       .  S
C337        C342   1.480       .  S
C337        C338   1.405       .  A
C338        C339   1.398       .  A
C338        N343   1.429       .  S
C339        C759   1.409       .  A
C339        H344   1.078       .  S
C340        C341   1.416       .  A
C340        C758   1.408   1_554  A
C341        C755   1.403   1_554  A
C341        N345   1.428       .  S
C342        C347   1.406       .  A
C342        C351   1.398       .  A
N343        O358   1.262       .  A
N343        O359   1.262       .  A
N345        O356   1.262       .  A
N345        O357   1.262       .  A
C347        C348   1.402       .  A
C347        N352   1.427       .  S
C348        C349   1.408       .  A
C348        H353   1.082       .  S
C349        C350   1.421       .  A
C350        C351   1.399       .  A
C350        N354   1.429       .  S
C351        H355   1.082       .  S
N352        O781   1.261       .  A
N352        O782   1.262       .  A
N354        O360   1.261       .  A
N354        O361   1.262       .  A
O362        N771   1.261       .  A
O363        N771   1.262       .  A
C364        C365   1.405       .  A
C364        C369   1.398       .  A
C364        H374   1.084       .  S
C365        C370   1.486       .  S
C365        C366   1.412       .  A
C366        C367   1.399       .  A
C366        N371   1.428       .  S
C367        C368   1.403       .  A
C367        H372   1.084       .  S
C368        C369   1.410       .  A
C369        N373   1.429       .  S
C370        C375   1.411       .  A
C370        C379   1.405       .  A
N371        O386   1.262       .  A
N371        O387   1.261       .  A
N373        O384   1.262       .  A
N373        O385   1.262       .  A
C375        C376   1.393       .  A
C375        N380   1.430       .  S
C376        C377   1.404       .  A
C376        H381   1.082       .  S
C377        C378   1.412       .  A
C378        C379   1.404       .  A
C378        N382   1.429       .  S
C379        H383   1.079       .  S
N380        O390   1.262       .  A
N380        O391   1.262       .  A
N382        O388   1.262       .  A
N382        O389   1.262       .  A
C392        C393   1.406       .  A
C392        C397   1.400       .  A
C392        H402   1.085       .  S
C393        C398   1.488       .  S
C393        C394   1.417       .  A
C394        C395   1.401       .  A
C394        N399   1.432       .  S
C395        C396   1.399       .  A
C395        H400   1.085       .  S
C396        C397   1.403       .  A
C397        N401   1.427       .  S
C398        C403   1.415       .  A
C398        C407   1.406       .  A
N399        O414   1.262       .  A
N399        O415   1.263       .  A
N401        O412   1.260       .  A
N401        O413   1.261       .  A
C403        C404   1.401       .  A
C403        N408   1.434       .  S
C404        C405   1.403       .  A
C404        H409   1.080       .  S
C405        C406   1.408       .  A
C406        C407   1.401       .  A
C406        N410   1.429       .  S
C407        H411   1.080       .  S
N408        O418   1.262       .  A
N408        O419   1.263       .  A
N410        O416   1.262       .  A
N410        O417   1.262       .  A
C420        N421   1.364       .  A
C420        N425   1.357       .  A
C420        C824   1.475       .  S
N421        C422   1.364       .  A
C422        N423   1.355       .  A
C422        C428   1.470       .  S
N423        C424   1.354       .  A
C424        N425   1.354       .  A
C424        C787   1.477       .  S
C426        N427   1.361       .  A
C426        N431   1.362       .  A
C426        C759   1.495       .  S
N427        C428   1.359       .  A
C428        N429   1.360       .  A
N429        C430   1.356       .  A
C430        N431   1.358       .  A
C430        C731   1.486       .  S
C432        N433   1.362       .  A
C432        N437   1.363       .  A
C432        C684   1.500       .  S
N433        C434   1.361       .  A
C434        N435   1.361       .  A
C434        C442   1.474       .  S
N435        C436   1.357       .  A
C436        N437   1.359       .  A
C436        C703   1.485       .  S
C438        N439   1.356       .  A
C438        N443   1.363       .  A
C438        C619   1.479       .  S
N439        C440   1.354       .  A
C440        N441   1.357       .  A
C440        C647   1.485       .  S
N441        C442   1.359       .  A
C442        N443   1.364       .  A
C444        N445   1.361       .  A
C444        N449   1.360       .  A
C444        C600   1.487       .  S
N445        C446   1.360       .  A
C446        N447   1.358       .  A
C446        C454   1.471       .  S
N447        C448   1.357       .  A
C448        N449   1.360       .  A
C448        C563   1.489       .  S
C450        N451   1.361       .  A
C450        N455   1.362       .  A
C450        C544   1.490       .  S
N451        C452   1.358       .  A
C452        N453   1.356       .  A
C452        C516   1.479       .  S
N453        C454   1.359       .  A
C454        N455   1.362       .  A
O456       Mn482   2.092       .  S
O456       C1321   1.271   1_545  A
C457        C768   1.493       .  S
C457        O490   1.273       .  A
C457        O487   1.272       .  A
O458       Mn465   2.166       .  S
O458       Mn476   2.121       .  S
O458       Mn480   2.167       .  S
O458      Mn1320   2.131       .  S
O459       Mn493   2.082       .  S
O459        C469   1.269       .  A
O460       Mn476   2.098       .  S
O460        C483   1.273       .  A
O461       Mn480   2.097       .  S
O461        C488   1.250       .  A
O462      Mn2169   1.983       .  S
O462       Mn482   1.974       .  S
O462        C478   1.223       .  S
C463        C712   1.496       .  S
C463        O466   1.253       .  A
C463        O489   1.216       .  S
O464      Mn2160   2.127       .  S
O464       Mn465   2.169       .  S
O464       Mn498   2.119       .  S
O464       Mn480   2.167       .  S
Mn465      O2170   2.102       .  S
Mn465       O470   2.107       .  S
Mn465      O1335   2.118       .  S
Mn465      O2985   2.169       .  S
O466      Mn2156   2.118   1_455  S
O467       Mn474   2.104       .  S
O467        C469   1.273       .  A
C468        C656   1.486       .  S
C468        O494   1.255       .  A
C468        O481   1.218       .  S
C469        C815   1.482       .  S
O470        C495   1.254       .  A
O471      Mn2979   2.171   1_445  S
O471       Mn474   2.119       .  S
O471       Mn493   2.122       .  S
O471      Mn2994   2.163   1_445  S
O472       Mn476   1.964       .  S
O472       Mn498   1.957       .  S
O472        C495   1.219       .  S
C473        C591   1.497       .  S
C473       O2175   1.273       .  A
C473        O475   1.271       .  A
Mn474       O487   2.089       .  S
Mn474      O1327   1.956   1_545  S
Mn474      O1319   1.963   1_545  S
O475       Mn498   2.083       .  S
Mn476       O492   2.083       .  S
Mn476       O486   1.954       .  S
O477       Mn482   2.090       .  S
O477       C1317   1.271   1_545  A
C478        C572   1.485       .  S
C478        O496   1.255       .  A
C479        C628   1.491       .  S
C479       O1315   1.271       .  A
C479        O492   1.271       .  A
Mn480      O2142   2.118       .  S
Mn480      O1334   2.098       .  S
Mn480      O2985   2.155       .  S
O481      Mn1312   1.951       .  S
O481       Mn484   1.958       .  S
Mn482      O1296   2.129   1_545  S
Mn482       O500   1.949       .  S
C483        C675   1.491       .  S
C483       O1294   1.272       .  A
Mn484       O491   2.094       .  S
Mn484       O499   2.106       .  S
Mn484      O2140   2.120   1_455  S
Mn484       O489   1.957       .  S
C485        C535   1.494       .  S
C485       O2167   1.272       .  A
C485        O501   1.273       .  A
O486       Mn498   1.962       .  S
O486        C488   1.219       .  S
C488        C796   1.477       .  S
O489      Mn1312   1.967       .  S
O490       Mn493   2.103       .  S
O491       C2161   1.272   1_455  A
Mn493      O2138   1.988   1_455  S
Mn493      O2176   1.947   1_455  S
O494      Mn2141   2.116   1_455  S
C495        C740   1.491       .  S
O496      Mn1318   2.097   1_545  S
O497      Mn1303   2.112   1_545  S
O497        C502   1.253       .  A
Mn498       O501   2.096       .  S
O499       C2149   1.273   1_455  A
O500      Mn2169   1.956       .  S
O500        C502   1.217       .  S
C502        C507   1.490       .  S
C503       C2180   1.393       .  A
C503        C508   1.392       .  A
C503        H513   1.083       .  S
C504        C509   1.473       .  S
C504       C2179   1.392       .  A
C504        C505   1.407       .  A
C505        C506   1.408       .  A
C505        N510   1.428   1_556  S
C506        C507   1.410       .  A
C506        H511   1.085       .  S
C507       C2184   1.417       .  A
C508       C2183   1.419       .  A
C508        N512   1.426       .  S
C509       C2190   1.407       .  A
C509        C518   1.403       .  A
N510        O525   1.262       .  A
N510        O526   1.262       .  A
N512        O523   1.261   1_655  A
N512        O524   1.262       .  A
C514       C2185   1.409       .  A
C515       C2192   1.401       .  A
C515        H520   1.080   1_655  S
C516       C2191   1.402       .  A
C517        C518   1.399       .  A
C517        N521   1.428       .  S
C518        H522   1.078       .  S
N519        O529   1.262       .  A
N521        O527   1.262       .  A
N521        O528   1.262   1_556  A
C531        C532   1.401       .  A
C531        C536   1.401       .  A
C531        H541   1.081       .  S
C532        C537   1.483       .  S
C532        C533   1.407       .  A
C533        C534   1.402       .  A
C533        N538   1.429       .  S
C534        C535   1.411       .  A
C534        H539   1.081       .  S
C535        C536   1.419       .  A
C536        N540   1.429       .  S
C537        C542   1.408       .  A
C537        C546   1.402       .  A
N540        O551   1.262       .  A
N540        O552   1.261       .  A
C542        C543   1.398       .  A
C542        N547   1.429       .  S
C543        H548   1.081       .  S
C544        C545   1.416       .  A
C545       N2225   1.429       .  S
C546       H2226   1.081   1_556  S
N547        O557   1.262       .  A
N547        O558   1.262       .  A
N549       C2221   1.429   1_455  S
N549        O555   1.262       .  A
N549        O556   1.262   1_455  A
H550       C2222   1.077   1_554  S
C559       C2236   1.401       .  A
C559        C564   1.403       .  A
C559        H569   1.079       .  S
C560        C565   1.481       .  S
C560       C2235   1.401       .  A
C560        C561   1.409       .  A
C561        C562   1.398       .  A
C561        N566   1.430       .  S
C562        C563   1.406       .  A
C562        H567   1.068       .  S
C563       C2240   1.418       .  A
C564       C2239   1.419       .  A
C564        N568   1.430       .  S
C565        C570   1.409       .  A
C565        C574   1.395       .  A
N566        O581   1.262       .  A
N566        O582   1.261       .  A
N568        O579   1.261       .  A
N568        O580   1.262   1_655  A
C570        C571   1.407       .  A
C570        N575   1.428       .  S
C571        C572   1.409       .  A
C571        H576   1.079       .  S
C572        C573   1.413       .  A
C573        C574   1.393       .  A
C573        N577   1.423       .  S
C574        H578   1.078       .  S
N575        O585   1.262       .  A
N575        O586   1.262       .  A
N577        O583   1.259       .  A
N577        O584   1.260       .  A
C587       C2264   1.402   1_455  A
C587        C592   1.404       .  A
C587        H597   1.077       .  S
C588        C593   1.485       .  S
C588       C2263   1.402       .  A
C588        C589   1.407       .  A
C589        C590   1.399       .  A
C589        N594   1.430       .  S
C590        C591   1.411       .  A
C590        H595   1.080       .  S
C591       C2268   1.419       .  A
C592       C2267   1.420   1_455  A
C592        N596   1.430       .  S
C593       C2274   1.409       .  A
C593        C602   1.402       .  A
N594        O609   1.262       .  A
N594        O610   1.262       .  A
N596        O607   1.262       .  A
N596        O608   1.262       .  A
C598       C2269   1.411       .  A
C598        C599   1.403       .  A
C598        N603   1.429   1_655  S
C599       C2276   1.406       .  A
C599        H604   1.077       .  S
C600       C2275   1.407       .  A
C600        C601   1.415       .  A
C601        C602   1.401       .  A
C601        N605   1.429       .  S
C602        H606   1.078       .  S
N603        O613   1.262       .  A
N603        O614   1.262   1_455  A
N605        O611   1.262       .  A
N605        O612   1.262       .  A
C615        C616   1.401       .  A
C615        C620   1.395       .  A
C615       H1463   1.082       .  S
C616        C621   1.486       .  S
C616        C617   1.413   1_556  A
C618        C619   1.407       .  A
C618        H623   1.082       .  S
C620       N1462   1.430       .  S
C621        C626   1.409       .  A
C621        C630   1.403       .  A
N622        O637   1.262       .  A
N624       C1458   1.430   1_545  S
N624        O635   1.262   1_545  A
N624        O636   1.262       .  A
H625       C1453   1.082       .  S
C626        C627   1.400       .  A
C626        N631   1.428       .  S
C627        C628   1.408       .  A
C627        H632   1.079       .  S
C628        C629   1.417       .  A
C629        C630   1.401       .  A
C629        N633   1.430       .  S
C630        H634   1.080       .  S
N631        O641   1.262       .  A
N631        O642   1.261       .  A
N633       O1477   1.261       .  A
N633       O1478   1.262       .  A
O639       N1471   1.260       .  A
O640       N1471   1.262       .  A
C643        C644   1.404       .  A
C643        C648   1.403   1_556  A
C643        H653   1.084       .  S
C644        C649   1.484       .  S
C644       C1483   1.410       .  A
C645       C1482   1.409       .  A
C645        N650   1.429   1_566  S
C646       C1485   1.407       .  A
C646        H651   1.080       .  S
C647       C1484   1.406       .  A
C648        N652   1.428       .  S
C649        C654   1.411       .  A
C649        C658   1.405       .  A
N650        O666   1.261       .  A
N652        O663   1.262       .  A
N652        O664   1.262       .  A
C654        C655   1.396       .  A
C654        N659   1.433       .  S
C655        C656   1.408       .  A
C655        H660   1.077       .  S
C656        C657   1.412       .  A
C657        C658   1.405       .  A
C657        N661   1.428       .  S
C658        H662   1.079       .  S
N659        O669   1.262       .  A
N659        O670   1.263       .  A
N661        O667   1.262       .  A
N661        O668   1.262       .  A
C671        C672   1.403       .  A
C671        C676   1.404       .  A
C671        H681   1.079       .  S
C672        C677   1.488       .  S
C672        C673   1.408       .  A
C673        C674   1.402       .  A
C673        N678   1.427       .  S
C674        C675   1.407       .  A
C674        H679   1.078       .  S
C675        C676   1.417       .  A
C676        N680   1.430       .  S
C677        C682   1.407       .  A
C677        C686   1.401       .  A
N678        O693   1.261       .  A
N678        O694   1.262       .  A
N680        O691   1.262       .  A
N680        O692   1.262       .  A
C682        C683   1.401       .  A
C682        N687   1.429       .  S
C683        C684   1.410       .  A
C683        H688   1.083       .  S
C684        C685   1.420       .  A
C685        C686   1.405       .  A
C685       N1527   1.427       .  S
C686       H1528   1.083       .  S
N687        O697   1.262       .  A
N687        O698   1.262       .  A
N689       C1523   1.430       .  S
N689        O695   1.262       .  A
N689        O696   1.261       .  A
H690       C1524   1.082       .  S
C699        C700   1.407       .  A
C699        C704   1.408       .  A
C699        H709   1.080       .  S
C700        C705   1.496       .  S
C700        C701   1.414       .  A
C701        C702   1.401       .  A
C701        N706   1.430       .  S
C702        C703   1.401       .  A
C702        H707   1.082       .  S
C703        C704   1.412       .  A
C704        N708   1.428       .  S
C705        C710   1.414       .  A
C705        C714   1.403       .  A
N706        O721   1.262       .  A
N706        O722   1.262       .  A
N708        O719   1.262       .  A
N708        O720   1.262       .  A
C710        C711   1.410       .  A
C710       N1553   1.428       .  S
C711        C712   1.409       .  A
C711       H1554   1.079       .  S
C712        C713   1.417       .  A
C713        C714   1.399       .  A
C713        N717   1.430       .  S
C714        H718   1.079       .  S
N715       C1548   1.428       .  S
N715        O725   1.262       .  A
N715        O726   1.262   1_565  A
H716       C1549   1.080       .  S
N717        O723   1.262       .  A
N717        O724   1.262       .  A
C727        C728   1.407       .  A
C727        H737   1.076       .  S
C728        C733   1.489       .  S
C728        C729   1.418       .  A
C729        C730   1.400       .  A
C729        N734   1.433       .  S
C730        H735   1.078       .  S
C731        C732   1.414       .  A
C732        N736   1.429       .  S
C733        C738   1.413       .  A
C733        C742   1.400       .  A
N734        O749   1.261       .  A
N734        O750   1.262       .  A
N736        O747   1.262       .  A
N736        O748   1.262       .  A
C738        C739   1.406       .  A
C738        N743   1.429       .  S
C739        C740   1.407       .  A
C739        H744   1.080       .  S
C740        C741   1.417       .  A
C741        C742   1.398       .  A
C741        N745   1.429       .  S
C742        H746   1.079       .  S
N745        O751   1.262       .  A
N745        O752   1.262       .  A
C755        C756   1.400       .  A
C755        H765   1.084   1_556  S
C756        C761   1.473       .  S
C756        C757   1.404       .  A
C757        C758   1.395       .  A
C757        N762   1.430       .  S
C758        H763   1.083       .  S
C759        C760   1.420       .  A
C760        N764   1.428       .  S
C761        C766   1.404       .  A
C761        C770   1.395       .  A
N762        O777   1.262       .  A
N762        O778   1.262       .  A
N764        O775   1.262       .  A
N764        O776   1.261       .  A
C766        C767   1.400       .  A
C766        N771   1.428       .  S
C767        C768   1.411       .  A
C767        H772   1.081       .  S
C768        C769   1.417       .  A
C769        C770   1.397       .  A
C769        N773   1.423       .  S
C770        H774   1.082       .  S
N773        O779   1.260       .  A
N773        O780   1.262       .  A
C783        C784   1.404       .  A
C783        C788   1.397       .  A
C783        H793   1.082       .  S
C784        C789   1.481       .  S
C784        C785   1.411       .  A
C785        C786   1.399       .  A
C785        N790   1.430       .  S
C786        C787   1.404       .  A
C786        H791   1.082       .  S
C787        C788   1.410       .  A
C788        N792   1.429       .  S
C789        C794   1.410       .  A
C789        C798   1.405       .  A
N790        O805   1.262       .  A
N790        O806   1.262       .  A
N792        O803   1.262       .  A
N792        O804   1.262       .  A
C794        C795   1.393       .  A
C794        N799   1.430       .  S
C795        C796   1.403       .  A
C795        H800   1.077       .  S
C796        C797   1.412       .  A
C797        C798   1.404       .  A
C797        N801   1.429       .  S
C798        H802   1.075       .  S
N799        O809   1.262       .  A
N799        O810   1.262       .  A
N801        O807   1.261       .  A
N801        O808   1.262       .  A
C811        C812   1.400       .  A
C811        C816   1.402       .  A
C811        H821   1.080       .  S
C812        C817   1.478       .  S
C812        C813   1.406       .  A
C813        C814   1.401       .  A
C813        N818   1.428       .  S
C814        C815   1.406       .  A
C814        H819   1.080       .  S
C815        C816   1.409       .  A
C816        N820   1.425       .  S
C817        C822   1.405       .  A
C817        C826   1.404       .  A
N818        O833   1.262       .  A
N818        O834   1.262       .  A
N820        O831   1.261       .  A
N820        O832   1.262       .  A
C822        C823   1.397       .  A
C822        N827   1.428       .  S
C823        C824   1.403       .  A
C823        H828   1.080       .  S
C824        C825   1.411       .  A
C825        C826   1.405       .  A
C825        N829   1.429       .  S
C826        H830   1.080       .  S
N827        O837   1.262       .  A
N827        O838   1.262       .  A
N829        O835   1.261       .  A
N829        O836   1.262       .  A
C839        N840   1.363       .  A
C839        N844   1.359       .  A
C839       C1243   1.486       .  S
N840        C841   1.362       .  A
C841        N842   1.357       .  A
C841        C847   1.469       .  S
N842        C843   1.354       .  A
C843        N844   1.356       .  A
C843       C1206   1.478       .  S
C845        N846   1.361       .  A
C845        N850   1.356       .  A
C845       C1178   1.476       .  S
N846        C847   1.361       .  A
C847        N848   1.361       .  A
N848        C849   1.356       .  A
C849        N850   1.353       .  A
C849       C1150   1.481       .  S
C851        N852   1.361       .  A
C851        N856   1.363       .  A
C851       C1103   1.498       .  S
N852        C853   1.361       .  A
C853        N854   1.359       .  A
C853        C861   1.470       .  S
N854        C855   1.356       .  A
C855        N856   1.359       .  A
C855       C1122   1.484       .  S
C857        N858   1.358       .  A
C857        N862   1.362       .  A
C857       C1038   1.486       .  S
N858        C859   1.356       .  A
C859        N860   1.356       .  A
C859       C1066   1.477       .  S
N860        C861   1.358       .  A
C861        N862   1.361       .  A
C863        N864   1.365       .  A
C863        N868   1.360       .  A
C863       C1019   1.496       .  S
N864        C865   1.361       .  A
C865        N866   1.356       .  A
C865        C873   1.467       .  S
N866        C867   1.351       .  A
C867        N868   1.357       .  A
C867        C982   1.479       .  S
C869        N870   1.362       .  A
C869        N874   1.365       .  A
C869        C963   1.495       .  S
N870        C871   1.354       .  A
C871        N872   1.349       .  A
C871        C935   1.465       .  S
N872        C873   1.355       .  A
C873        N874   1.362       .  A
O875       Mn901   2.085       .  S
C876       C1187   1.489       .  S
C876        O909   1.271       .  A
C876        O906   1.273       .  A
O877       Mn884   2.166       .  S
O877       Mn895   2.135       .  S
O877       Mn899   2.164       .  S
O878       Mn912   2.094       .  S
O878        C888   1.271       .  A
O879       Mn895   2.097       .  S
O879        C902   1.273       .  A
O880       Mn899   2.091       .  S
O880        C907   1.250       .  A
O881      Mn2588   1.969       .  S
O881       Mn901   1.966       .  S
O881        C897   1.219       .  S
C882       C1131   1.491       .  S
C882        O885   1.253       .  A
C882        O908   1.221       .  S
O883      Mn2579   2.127       .  S
O883       Mn884   2.173       .  S
O883       Mn917   2.122       .  S
O883       Mn899   2.167       .  S
Mn884      O2589   2.119       .  S
Mn884       O889   2.104       .  S
Mn884      O1728   2.164   1_565  S
O885      Mn2575   2.095   1_455  S
O886       Mn893   2.094       .  S
O886        C888   1.271       .  A
C887       C1075   1.485       .  S
C887        O913   1.255       .  A
C887        O900   1.217       .  S
C888       C1234   1.478       .  S
O889        C914   1.255       .  A
O890      Mn1722   2.168   1_455  S
O890       Mn893   2.122       .  S
O890       Mn912   2.130       .  S
O890      Mn1737   2.157   1_455  S
O891       Mn895   1.962       .  S
O891       Mn917   1.954       .  S
O891        C914   1.220       .  S
C892       C1010   1.492       .  S
C892       O2594   1.274       .  A
C892        O894   1.270       .  A
Mn893       O906   2.095       .  S
O894       Mn917   2.079       .  S
Mn895       O911   2.088       .  S
Mn895       O905   1.959       .  S
O896       Mn901   2.081       .  S
C897        C991   1.479       .  S
C897        O915   1.254       .  A
C898       C1047   1.491       .  S
C898        O911   1.269       .  A
Mn899      O2561   2.108       .  S
Mn899      O1728   2.158   1_565  S
O900       Mn903   1.955       .  S
Mn901       O919   1.951       .  S
C902       C1094   1.492       .  S
Mn903       O910   2.079       .  S
Mn903       O918   2.106       .  S
Mn903      O2559   2.129   1_455  S
Mn903       O908   1.959       .  S
C904        C954   1.484       .  S
C904       O2586   1.270       .  A
C904        O920   1.271       .  A
O905       Mn917   1.964       .  S
O905        C907   1.221       .  S
C907       C1215   1.479       .  S
O909       Mn912   2.088       .  S
O910       C2580   1.268   1_455  A
Mn912      O2557   1.973   1_455  S
Mn912      O2595   1.962   1_455  S
O913      Mn2560   2.123   1_455  S
C914       C1159   1.487       .  S
O916        C921   1.256       .  A
Mn917       O920   2.089       .  S
O918       C2568   1.274   1_455  A
O919      Mn2588   1.964       .  S
O919        C921   1.219       .  S
C921        C926   1.489       .  S
C922       C2599   1.394       .  A
C922        C927   1.395       .  A
C922        H932   1.085       .  S
C923        C928   1.476       .  S
C923       C2598   1.394       .  A
C923        C924   1.406       .  A
C924        C925   1.406       .  A
C924        N929   1.429       .  S
C925        C926   1.409       .  A
C925        H930   1.083       .  S
C926       C2603   1.421       .  A
C927       C2602   1.419       .  A
C927        N931   1.428       .  S
C928       C2609   1.408       .  A
C928        C937   1.403       .  A
N929        O944   1.261       .  A
N929        O945   1.262       .  A
N931        O942   1.259       .  A
N931        O943   1.261       .  A
C933       C2604   1.407   1_455  A
C933       C1353   1.398       .  A
C933       N1357   1.429       .  S
C934       C1352   1.401   1_554  A
C934       C2611   1.402   1_455  A
C934        H939   1.082       .  S
C935       C2610   1.400       .  A
C935       C1355   1.407       .  A
C936       C1354   1.410       .  A
C936        C937   1.403       .  A
C936        N940   1.429       .  S
C937        H941   1.081       .  S
N938       C1352   1.429   1_554  S
N938        O948   1.262   1_554  A
N938       O1368   1.262       .  A
N940        O946   1.262       .  A
N940        O947   1.261       .  A
O949       N1357   1.262       .  A
C950        C951   1.401       .  A
C950        C955   1.399       .  A
C950        H960   1.079       .  S
C951        C956   1.476       .  S
C951        C952   1.406       .  A
C952        C953   1.400       .  A
C952        N957   1.429       .  S
C953        C954   1.408       .  A
C953        H958   1.077       .  S
C954        C955   1.415       .  A
C955        N959   1.429       .  S
C956        C961   1.404       .  A
C956        C965   1.401       .  A
N957       O1391   1.262       .  A
N957       O1392   1.262       .  A
N959        O970   1.262       .  A
N959        O971   1.262       .  A
C961        C962   1.394       .  A
C961        N966   1.429       .  S
C962       C1382   1.410       .  A
C962        H967   1.079       .  S
C963       C1381   1.410   1_554  A
C963        C964   1.419       .  A
C964       C1384   1.406   1_554  A
C964       N2644   1.429       .  S
C965       C1383   1.405       .  A
C965       H2645   1.079       .  S
N966        O976   1.262       .  A
N966        O977   1.262       .  A
N968       C2640   1.428       .  S
N968        O974   1.262   1_655  A
N968        O975   1.262       .  A
H969       C2641   1.077       .  S
O972       N1376   1.262       .  A
O973       N1376   1.262       .  A
C978       C2655   1.401       .  A
C978        C983   1.403       .  A
C978        H988   1.077       .  S
C979        C984   1.476       .  S
C979       C2654   1.401       .  A
C979        C980   1.409       .  A
C980        C981   1.397       .  A
C980        N985   1.429       .  S
C981        C982   1.402       .  A
C981        H986   1.080       .  S
C982       C2659   1.415       .  A
C983       C2658   1.417       .  A
C983        N987   1.429   1_655  S
C984        C989   1.408       .  A
C984        C993   1.396       .  A
N985       O1000   1.262       .  A
N985       O1001   1.262       .  A
N987        O998   1.262   1_455  A
N987        O999   1.262       .  A
C989        C990   1.406       .  A
C989        N994   1.428       .  S
C990        C991   1.407       .  A
C990        H995   1.081       .  S
C991        C992   1.412       .  A
C992        C993   1.393       .  A
C992        N996   1.427       .  S
C993        H997   1.081       .  S
N994       O1004   1.262       .  A
N994       O1005   1.262       .  A
N996       O1002   1.261       .  A
N996       O1003   1.259       .  A
C1006      C2683   1.402   1_455  A
C1006      C1011   1.403       .  A
C1006      H1016   1.083       .  S
C1007      C1012   1.479       .  S
C1007      C2682   1.401       .  A
C1007      C1008   1.406       .  A
C1008      C1009   1.399       .  A
C1008      N1013   1.429       .  S
C1009      C1010   1.411       .  A
C1009      H1014   1.082       .  S
C1010      C2687   1.416       .  A
C1011      C2686   1.416   1_455  A
C1011      N1015   1.428       .  S
C1012      C2693   1.406       .  A
C1012      C1021   1.398       .  A
N1013      O1028   1.262       .  A
N1013      O1029   1.261       .  A
N1015      O1026   1.261       .  A
N1015      O1027   1.261       .  A
C1017      C2688   1.408   1_455  A
C1017      C1018   1.403       .  A
C1017      N1022   1.428       .  S
C1018      C2695   1.406   1_455  A
C1018      H1023   1.079       .  S
C1019      C2694   1.411       .  A
C1019      C1020   1.421       .  A
C1020      C1021   1.399       .  A
C1020      N1024   1.429       .  S
C1021      H1025   1.079       .  S
N1022      O1032   1.262       .  A
N1022      O1033   1.261       .  A
N1024      O1030   1.262       .  A
N1024      O1031   1.262       .  A
C1034      C1035   1.401       .  A
C1034      C1039   1.405       .  A
C1035      C1040   1.478       .  S
C1035      C1036   1.405       .  A
C1036      C1456   1.398       .  A
C1036      N1460   1.429   1_565  S
C1037      C1455   1.404       .  A
C1037      C1038   1.408       .  A
C1037      H1042   1.081       .  S
C1038      C1458   1.415   1_554  A
C1039      C1457   1.417       .  A
C1040      C1045   1.405   1_565  A
C1040      C1049   1.401       .  A
N1041      C1455   1.430       .  S
N1041      O1056   1.262       .  A
N1041      O1476   1.262       .  A
N1043      O1054   1.262       .  A
N1043      O1055   1.262       .  A
C1045      C1046   1.402       .  A
C1045      N1050   1.429       .  S
C1046      C1047   1.411   1_545  A
C1046      H1051   1.049       .  S
C1047      C1048   1.416       .  A
C1048      C1049   1.402       .  A
C1048      N1052   1.428       .  S
C1049      H1053   1.066       .  S
N1050      O1060   1.262       .  A
N1050      O1061   1.261       .  A
O1057      N1460   1.262       .  A
C1062      C1063   1.406       .  A
C1062      C1067   1.400       .  A
C1062      H1072   1.079       .  S
C1063      C1068   1.493       .  S
C1064      C1484   1.400       .  A
C1064      N1069   1.429       .  S
C1065      C1483   1.396       .  A
C1065      H1070   1.084       .  S
C1066      C1486   1.411   1_554  A
C1067      C1485   1.413       .  A
C1067      N1071   1.429       .  S
C1068      C1073   1.411       .  A
C1068      C1077   1.409       .  A
N1069      O1503   1.262       .  A
N1069      O1085   1.261       .  A
N1071      O1082   1.262       .  A
N1071      O1083   1.262       .  A
C1073      C1074   1.395       .  A
C1073      N1078   1.430   1_565  S
C1074      C1075   1.405       .  A
C1074      H1079   1.080   1_565  S
C1075      C1076   1.411       .  A
C1076      C1077   1.409       .  A
C1076      N1080   1.428       .  S
C1077      H1081   1.078       .  S
N1078      O1088   1.262   1_545  A
N1078      O1089   1.262       .  A
N1080      O1086   1.262       .  A
N1080      O1087   1.262       .  A
O1084      N1488   1.261       .  A
C1090      C1091   1.403   1_545  A
C1090      C1095   1.402       .  A
C1090      H1100   1.080       .  S
C1091      C1096   1.488       .  S
C1091      C1092   1.409       .  A
C1092      C1093   1.404       .  A
C1092      N1097   1.430       .  S
C1093      C1094   1.408       .  A
C1093      H1098   1.079       .  S
C1094      C1095   1.416   1_565  A
C1095      N1099   1.429       .  S
C1096      C1101   1.407       .  A
C1096      C1105   1.403       .  A
N1097      O1112   1.261       .  A
N1097      O1113   1.262       .  A
N1099      O1110   1.262       .  A
N1099      O1111   1.261       .  A
C1101      C1102   1.399       .  A
C1101      N1106   1.429       .  S
C1102      C1103   1.409       .  A
C1102      H1107   1.082       .  S
C1103      C1104   1.420       .  A
C1104      C1105   1.407       .  A
N1106      O1116   1.262   1_565  A
N1106      O1117   1.262       .  A
N1108      O1114   1.262       .  A
N1108      O1115   1.262       .  A
C1118      C1119   1.405       .  A
C1118      C1123   1.401       .  A
C1118      H1128   1.083       .  S
C1119      C1124   1.491       .  S
C1119      C1120   1.415       .  A
C1120      C1121   1.406       .  A
C1120      N1125   1.432   1_565  S
C1121      C1122   1.405       .  A
C1121      H1126   1.083       .  S
C1122      C1123   1.409       .  A
C1123      N1127   1.429       .  S
C1124      C1129   1.413       .  A
C1124      C1133   1.403       .  A
N1125      O1140   1.262       .  A
N1125      O1141   1.262       .  A
N1127      O1138   1.262       .  A
N1127      O1139   1.262       .  A
C1129      C1130   1.405       .  A
C1130      C1131   1.408       .  A
C1131      C1132   1.415       .  A
C1132      C1133   1.399       .  A
C1132      N1136   1.429       .  S
C1133      H1137   1.083       .  S
N1134      O1144   1.262       .  A
N1134      O1145   1.262       .  A
N1136      O1142   1.262   1_565  A
N1136      O1143   1.262       .  A
C1146      C1147   1.405       .  A
C1146      C1570   1.406       .  A
C1146      H1156   1.080       .  S
C1147      C1152   1.493       .  S
C1147      C1148   1.413       .  A
C1148      C1149   1.398       .  A
C1148      N1153   1.430       .  S
C1149      C1569   1.404       .  A
C1149      H1154   1.082       .  S
C1150      C1568   1.403   1_554  A
C1150      C1151   1.411       .  A
C1151      C1565   1.403   1_554  A
C1151      N1155   1.429       .  S
C1152      C1157   1.413       .  A
C1152      C1161   1.403       .  A
N1153      O1168   1.262       .  A
N1153      O1169   1.261       .  A
N1155      O1166   1.262       .  A
N1155      O1167   1.262       .  A
C1157      C1158   1.405       .  A
C1157      N1162   1.429       .  S
C1158      C1159   1.406       .  A
C1158      H1163   1.079       .  S
C1159      C1160   1.416       .  A
C1160      C1161   1.399       .  A
C1160      N1164   1.431       .  S
C1161      H1165   1.078       .  S
N1162      O1591   1.262       .  A
N1162      O1592   1.262       .  A
N1164      O1170   1.262       .  A
N1164      O1171   1.262       .  A
O1172      N1581   1.262   1_554  A
O1173      N1581   1.262   1_554  A
C1174      C1175   1.401       .  A
C1174      C1598   1.404       .  A
C1174      H1184   1.081       .  S
C1175      C1180   1.477       .  S
C1175      C1176   1.405       .  A
C1176      C1177   1.397       .  A
C1176      N1181   1.430       .  S
C1177      C1597   1.409       .  A
C1177      H1182   1.081       .  S
C1178      C1596   1.405   1_554  A
C1178      C1179   1.412       .  A
C1179      C1593   1.403   1_554  A
C1179      N1183   1.428       .  S
C1180      C1185   1.406       .  A
C1180      C1189   1.399       .  A
N1181      O1196   1.262       .  A
N1181      O1197   1.262       .  A
N1183      O1194   1.262       .  A
N1183      O1195   1.262       .  A
C1185      C1186   1.401       .  A
C1185      N1190   1.429       .  S
C1186      C1187   1.409       .  A
C1186      H1191   1.079       .  S
C1187      C1188   1.418       .  A
C1188      C1189   1.400       .  A
C1188      N1192   1.429       .  S
C1189      H1193   1.080       .  S
N1190      O1619   1.261       .  A
N1190      O1620   1.261       .  A
N1192      O1198   1.261       .  A
N1192      O1199   1.262       .  A
O1200      N1609   1.261       .  A
O1201      N1609   1.262       .  A
C1202      C1203   1.404       .  A
C1202      C1207   1.397       .  A
C1202      H1212   1.078       .  S
C1203      C1208   1.483       .  S
C1203      C1204   1.410       .  A
C1204      C1205   1.402       .  A
C1204      N1209   1.429       .  S
C1205      C1206   1.405       .  A
C1205      H1210   1.079       .  S
C1206      C1207   1.409       .  A
C1207      N1211   1.429       .  S
C1208      C1213   1.410       .  A
C1208      C1217   1.404       .  A
N1209      O1224   1.262       .  A
N1209      O1225   1.261       .  A
N1211      O1222   1.262       .  A
N1211      O1223   1.262       .  A
C1213      C1214   1.394       .  A
C1213      N1218   1.430       .  S
C1214      C1215   1.403       .  A
C1214      H1219   1.078       .  S
C1215      C1216   1.414       .  A
C1216      C1217   1.404       .  A
C1216      N1220   1.429       .  S
C1217      H1221   1.075       .  S
N1218      O1228   1.262       .  A
N1218      O1229   1.262       .  A
N1220      O1226   1.261       .  A
N1220      O1227   1.262       .  A
C1230      C1231   1.399       .  A
C1230      C1235   1.402       .  A
C1230      H1240   1.085       .  S
C1231      C1236   1.478       .  S
C1231      C1232   1.409       .  A
C1232      C1233   1.401       .  A
C1232      N1237   1.429       .  S
C1233      C1234   1.404       .  A
C1233      H1238   1.084       .  S
C1234      C1235   1.411       .  A
C1235      N1239   1.429       .  S
C1236      C1241   1.406       .  A
C1236      C1245   1.402       .  A
N1237      O1252   1.262       .  A
N1237      O1253   1.262       .  A
N1239      O1250   1.262       .  A
N1239      O1251   1.262       .  A
C1241      C1242   1.399       .  A
C1241      N1246   1.430       .  S
C1242      C1243   1.407       .  A
C1242      H1247   1.076       .  S
C1243      C1244   1.414       .  A
C1244      C1245   1.405       .  A
C1244      N1248   1.429       .  S
C1245      H1249   1.078       .  S
N1246      O1256   1.262       .  A
N1246      O1257   1.262       .  A
N1248      O1254   1.261       .  A
N1248      O1255   1.262       .  A
C1258      N1259   1.365       .  A
C1258      N1263   1.357       .  A
C1258      C1662   1.480       .  S
N1259      C1260   1.364       .  A
C1260      N1261   1.357       .  A
C1260      C1266   1.472       .  S
N1261      C1262   1.354       .  A
C1262      N1263   1.353       .  A
C1262      C1625   1.478       .  S
C1264      N1265   1.363       .  A
C1264      N1269   1.358       .  A
C1264      C1597   1.488       .  S
N1265      C1266   1.363       .  A
C1266      N1267   1.361       .  A
N1267      C1268   1.355       .  A
C1268      N1269   1.355       .  A
C1268      C1569   1.489       .  S
C1270      N1271   1.361       .  A
C1270      N1275   1.360       .  A
C1270      C1522   1.482       .  S
N1271      C1272   1.361       .  A
C1272      N1273   1.360       .  A
C1272      C1280   1.471       .  S
N1273      C1274   1.357       .  A
C1274      N1275   1.359       .  A
C1274      C1541   1.481       .  S
C1276      N1277   1.361       .  A
C1276      N1281   1.362       .  A
C1276      C1457   1.490       .  S
N1277      C1278   1.358       .  A
C1278      N1279   1.357       .  A
C1278      C1485   1.489       .  S
N1279      C1280   1.358       .  A
C1280      N1281   1.362       .  A
C1282      N1283   1.362       .  A
C1282      N1287   1.359       .  A
C1282      C1438   1.497       .  S
N1283      C1284   1.360       .  A
C1284      N1285   1.357       .  A
C1284      C1292   1.466       .  S
N1285      C1286   1.353       .  A
C1286      N1287   1.359       .  A
C1286      C1401   1.483       .  S
C1288      N1289   1.358       .  A
C1288      N1293   1.361       .  A
C1288      C1382   1.492       .  S
N1289      C1290   1.353       .  A
C1290      N1291   1.353       .  A
C1290      C1354   1.472       .  S
N1291      C1292   1.359       .  A
C1292      N1293   1.362       .  A
O1294     Mn1320   2.096       .  S
C1295      C1606   1.487       .  S
C1295      O1328   1.274       .  A
C1295      O1325   1.271       .  A
O1296     Mn1303   2.160       .  S
O1296     Mn1314   2.121       .  S
O1296     Mn1318   2.163       .  S
O1297     Mn1331   2.081       .  S
O1297      C1307   1.269       .  A
O1298     Mn1314   2.095       .  S
O1298      C1321   1.273       .  A
O1299     Mn1318   2.102       .  S
O1299      C1326   1.250       .  A
O1300     Mn3007   1.980       .  S
O1300     Mn1320   1.980       .  S
O1300      C1316   1.224       .  S
C1301      C1550   1.494       .  S
C1301      O1304   1.254       .  A
C1301      O1327   1.212       .  S
O1302     Mn2998   2.125       .  S
O1302     Mn1303   2.166       .  S
O1302     Mn1336   2.117       .  S
O1302     Mn1318   2.167       .  S
Mn1303     O3008   2.093       .  S
Mn1303     O1308   2.111       .  S
Mn1303     O2147   2.173   1_565  S
O1304     Mn2994   2.131   1_455  S
O1305     Mn1312   2.096       .  S
O1305      C1307   1.273       .  A
C1306      C1494   1.480       .  S
C1306      O1332   1.254       .  A
C1306      O1319   1.221       .  S
C1307      C1653   1.476       .  S
O1308      C1333   1.254       .  A
O1309     Mn2141   2.169   1_455  S
O1309     Mn1312   2.121       .  S
O1309     Mn1331   2.121       .  S
O1309     Mn2156   2.154   1_455  S
O1310     Mn1314   1.963       .  S
O1310     Mn1336   1.949       .  S
O1310      C1333   1.215       .  S
C1311      C1429   1.497       .  S
C1311      O3013   1.274       .  A
C1311      O1313   1.270       .  A
Mn1312     O1325   2.089       .  S
O1313     Mn1336   2.083       .  S
Mn1314     O1330   2.093       .  S
Mn1314     O1324   1.957       .  S
O1315     Mn1320   2.098       .  S
C1316      C1410   1.490       .  S
C1316      O1334   1.256       .  A
C1317      C1466   1.492       .  S
C1317      O1330   1.272       .  A
Mn1318     O2980   2.108       .  S
Mn1318     O2147   2.159   1_565  S
O1319     Mn1322   1.967       .  S
Mn1320     O1338   1.946       .  S
C1321      C1513   1.480       .  S
Mn1322     O1329   2.082       .  S
Mn1322     O1337   2.116       .  S
Mn1322     O2978   2.120   1_455  S
Mn1322     O1327   1.941       .  S
C1323      C1373   1.494       .  S
C1323      O3005   1.271       .  A
C1323      O1339   1.273       .  A
O1324     Mn1336   1.961       .  S
O1324      C1326   1.218       .  S
C1326      C1634   1.480       .  S
O1328     Mn1331   2.102       .  S
O1329      C2999   1.269   1_455  A
Mn1331     O2976   1.990   1_455  S
Mn1331     O3014   1.946   1_455  S
O1332     Mn2979   2.100   1_455  S
C1333      C1578   1.485       .  S
O1335      C1340   1.253       .  A
Mn1336     O1339   2.098       .  S
O1337      C2987   1.274   1_455  A
O1338     Mn3007   1.952       .  S
O1338      C1340   1.217       .  S
C1340      C1345   1.492       .  S
C1341      C3018   1.394       .  A
C1341      C1346   1.395       .  A
C1341      H1351   1.082   1_655  S
C1342      C1347   1.475       .  S
C1342      C3017   1.393       .  A
C1342      C1343   1.408       .  A
C1343      C1344   1.409       .  A
C1343      N1348   1.429   1_556  S
C1344      C1345   1.410       .  A
C1344      H1349   1.082       .  S
C1345      C3022   1.417       .  A
C1346      C3021   1.419       .  A
C1346      N1350   1.427   1_655  S
C1347      C3028   1.408       .  A
C1347      C1356   1.404       .  A
N1348      O1363   1.262       .  A
N1348      O1364   1.262       .  A
N1350      O1361   1.262       .  A
N1350      O1362   1.262   1_455  A
C1352      C3023   1.409   1_455  A
C1353      C3030   1.403   1_455  A
C1353      H1358   1.084       .  S
C1354      C3029   1.402       .  A
C1355      C1356   1.402   1_554  A
C1355      N1359   1.429       .  S
C1356      H1360   1.080       .  S
N1357      O1367   1.262       .  A
N1359      O1365   1.262   1_554  A
N1359      O1366   1.262       .  A
C1369      C1370   1.401       .  A
C1369      C1374   1.403       .  A
C1369      H1379   1.067       .  S
C1370      C1375   1.478       .  S
C1370      C1371   1.404       .  A
C1371      C1372   1.401       .  A
C1371      N1376   1.428       .  S
C1372      C1373   1.412       .  A
C1372      H1377   1.056       .  S
C1373      C1374   1.419       .  A
C1374      N1378   1.429       .  S
C1375      C1380   1.404       .  A
C1375      C1384   1.401       .  A
N1378      O1389   1.262       .  A
N1378      O1390   1.261       .  A
C1380      C1381   1.397       .  A
C1380      N1385   1.429       .  S
C1381      H1386   1.078       .  S
C1382      C1383   1.418       .  A
C1383      N3063   1.429       .  S
C1384      H3064   1.078   1_556  S
N1385      O1395   1.262       .  A
N1385      O1396   1.262       .  A
N1387      C3059   1.429       .  S
N1387      O1393   1.262   1_655  A
N1387      O1394   1.262       .  A
H1388      C3060   1.081   1_554  S
C1397      C3074   1.398       .  A
C1397      C1402   1.400       .  A
C1397      H1407   1.079       .  S
C1398      C1403   1.486       .  S
C1398      C3073   1.403       .  A
C1398      C1399   1.414       .  A
C1399      C1400   1.395       .  A
C1399      N1404   1.430       .  S
C1400      C1401   1.401       .  A
C1400      H1405   1.076       .  S
C1401      C3078   1.416       .  A
C1402      C3077   1.418       .  A
C1402      N1406   1.431   1_655  S
C1403      C1408   1.410       .  A
C1403      C1412   1.395       .  A
N1404      O1419   1.262       .  A
N1404      O1420   1.261       .  A
N1406      O1417   1.262   1_455  A
N1406      O1418   1.262       .  A
C1408      C1409   1.408       .  A
C1408      N1413   1.428       .  S
C1409      C1410   1.411       .  A
C1409      H1414   1.076       .  S
C1410      C1411   1.417       .  A
C1411      C1412   1.393       .  A
C1411      N1415   1.426       .  S
C1412      H1416   1.075       .  S
N1413      O1423   1.262       .  A
N1413      O1424   1.262       .  A
N1415      O1421   1.260       .  A
N1415      O1422   1.261       .  A
C1425      C3102   1.400   1_455  A
C1425      C1430   1.405       .  A
C1425      H1435   1.087       .  S
C1426      C1431   1.483       .  S
C1426      C3101   1.401       .  A
C1426      C1427   1.407       .  A
C1427      C1428   1.402       .  A
C1427      N1432   1.430       .  S
C1428      C1429   1.412       .  A
C1428      H1433   1.082       .  S
C1429      C3106   1.418       .  A
C1430      C3105   1.420   1_455  A
C1430      N1434   1.430       .  S
C1431      C3112   1.408       .  A
C1431      C1440   1.399       .  A
N1432      O1447   1.262       .  A
N1432      O1448   1.262       .  A
N1434      O1445   1.262       .  A
N1434      O1446   1.262       .  A
C1436      C3107   1.405       .  A
C1436      C1437   1.404       .  A
C1436      N1441   1.428       .  S
C1437      C3114   1.411       .  A
C1437      H1442   1.077       .  S
C1438      C3113   1.412       .  A
C1438      C1439   1.419       .  A
C1439      C1440   1.398       .  A
C1439      N1443   1.429       .  S
C1440      H1444   1.079       .  S
N1441      O1451   1.262   1_655  A
N1441      O1452   1.262       .  A
N1443      O1449   1.262       .  A
N1443      O1450   1.262       .  A
C1453      C1454   1.401       .  A
C1453      C1458   1.396       .  A
C1454      C1459   1.482       .  S
C1454      C1455   1.409   1_556  A
C1456      C1457   1.408       .  A
C1456      H1461   1.081   1_565  S
C1459      C1464   1.409       .  A
C1459      C1468   1.399   1_565  A
N1460      O1475   1.262   1_545  A
N1462      O1473   1.262       .  A
N1462      O1474   1.262       .  A
C1464      C1465   1.403       .  A
C1464      N1469   1.430       .  S
C1465      C1466   1.410       .  A
C1465      H1470   1.079       .  S
C1466      C1467   1.418   1_565  A
C1467      C1468   1.398       .  A
C1467      N1471   1.429       .  S
C1468      H1472   1.080       .  S
N1469      O1479   1.262       .  A
N1469      O1480   1.262       .  A
C1481      C1482   1.403       .  A
C1481      C1486   1.398       .  A
C1481      H1491   1.080       .  S
C1482      C1487   1.482       .  S
C1483      N1488   1.429       .  S
C1484      H1489   1.080       .  S
C1486      N1490   1.431       .  S
C1487      C1492   1.409       .  A
C1487      C1496   1.405       .  A
N1488      O1504   1.262       .  A
N1490      O1501   1.262       .  A
N1490      O1502   1.262       .  A
C1492      C1493   1.394       .  A
C1492      N1497   1.430   1_565  S
C1493      C1494   1.405       .  A
C1493      H1498   1.080       .  S
C1494      C1495   1.412       .  A
C1495      C1496   1.404       .  A
C1495      N1499   1.429       .  S
C1496      H1500   1.080       .  S
N1497      O1507   1.262   1_545  A
N1497      O1508   1.261       .  A
N1499      O1505   1.262       .  A
N1499      O1506   1.262       .  A
C1509      C1510   1.400   1_545  A
C1509      C1514   1.400       .  A
C1509      H1519   1.081       .  S
C1510      C1515   1.478       .  S
C1510      C1511   1.407       .  A
C1511      C1512   1.402       .  A
C1511      N1516   1.427       .  S
C1512      C1513   1.405       .  A
C1512      H1517   1.080       .  S
C1513      C1514   1.413   1_565  A
C1514      N1518   1.429       .  S
C1515      C1520   1.407       .  A
C1515      C1524   1.402   1_565  A
N1516      O1531   1.262       .  A
N1516      O1532   1.261       .  A
N1518      O1529   1.262       .  A
N1518      O1530   1.262       .  A
C1520      C1521   1.399       .  A
C1520      N1525   1.429       .  S
C1521      C1522   1.404       .  A
C1521      H1526   1.082       .  S
C1522      C1523   1.414   1_565  A
C1523      C1524   1.405       .  A
N1525      O1535   1.262       .  A
N1525      O1536   1.262       .  A
N1527      O1533   1.262       .  A
N1527      O1534   1.261       .  A
C1537      C1538   1.407       .  A
C1537      C1542   1.407       .  A
C1537      H1547   1.079       .  S
C1538      C1543   1.496       .  S
C1538      C1539   1.416   1_565  A
C1539      C1540   1.399       .  A
C1539      N1544   1.430       .  S
C1540      C1541   1.400   1_545  A
C1540      H1545   1.081       .  S
C1541      C1542   1.412       .  A
C1542      N1546   1.429       .  S
C1543      C1548   1.415       .  A
C1543      C1552   1.402       .  A
N1544      O1559   1.262       .  A
N1544      O1560   1.261       .  A
N1546      O1557   1.262       .  A
N1546      O1558   1.262       .  A
C1548      C1549   1.409       .  A
C1549      C1550   1.407       .  A
C1550      C1551   1.419       .  A
C1551      C1552   1.396       .  A
C1551      N1555   1.430       .  S
C1552      H1556   1.079       .  S
N1553      O1563   1.262       .  A
N1553      O1564   1.262       .  A
N1555      O1561   1.262   1_565  A
N1555      O1562   1.262       .  A
C1565      C1566   1.406       .  A
C1565      H1575   1.075   1_556  S
C1566      C1571   1.491       .  S
C1566      C1567   1.414       .  A
C1567      C1568   1.397       .  A
C1567      N1572   1.431       .  S
C1568      H1573   1.079       .  S
C1569      C1570   1.415       .  A
C1570      N1574   1.429       .  S
C1571      C1576   1.413       .  A
C1571      C1580   1.402       .  A
N1572      O1587   1.262       .  A
N1572      O1588   1.261       .  A
N1574      O1585   1.262       .  A
N1574      O1586   1.262       .  A
C1576      C1577   1.404       .  A
C1576      N1581   1.428       .  S
C1577      C1578   1.405       .  A
C1577      H1582   1.076       .  S
C1578      C1579   1.418       .  A
C1579      C1580   1.397       .  A
C1579      N1583   1.432       .  S
C1580      H1584   1.075       .  S
N1583      O1589   1.262       .  A
N1583      O1590   1.262       .  A
C1593      C1594   1.402       .  A
C1593      H1603   1.082   1_556  S
C1594      C1599   1.470       .  S
C1594      C1595   1.403       .  A
C1595      C1596   1.394       .  A
C1595      N1600   1.429       .  S
C1596      H1601   1.082       .  S
C1597      C1598   1.414       .  A
C1598      N1602   1.427       .  S
C1599      C1604   1.405       .  A
C1599      C1608   1.393       .  A
N1600      O1615   1.262       .  A
N1600      O1616   1.262       .  A
N1602      O1613   1.261       .  A
N1602      O1614   1.262       .  A
C1604      C1605   1.401       .  A
C1604      N1609   1.430       .  S
C1605      C1606   1.409       .  A
C1605      H1610   1.083       .  S
C1606      C1607   1.414       .  A
C1607      C1608   1.396       .  A
C1607      N1611   1.422       .  S
C1608      H1612   1.084       .  S
N1611      O1617   1.261       .  A
N1611      O1618   1.261       .  A
C1621      C1622   1.403       .  A
C1621      C1626   1.398       .  A
C1621      H1631   1.083       .  S
C1622      C1627   1.481       .  S
C1622      C1623   1.408       .  A
C1623      C1624   1.399       .  A
C1623      N1628   1.428       .  S
C1624      C1625   1.404       .  A
C1624      H1629   1.083       .  S
C1625      C1626   1.412       .  A
C1626      N1630   1.430       .  S
C1627      C1632   1.408       .  A
C1627      C1636   1.404       .  A
N1628      O1643   1.262       .  A
N1628      O1644   1.261       .  A
N1630      O1641   1.262       .  A
N1630      O1642   1.262       .  A
C1632      C1633   1.393       .  A
C1632      N1637   1.430       .  S
C1633      C1634   1.404       .  A
C1633      H1638   1.082       .  S
C1634      C1635   1.413       .  A
C1635      C1636   1.404       .  A
C1635      N1639   1.429       .  S
C1636      H1640   1.081       .  S
N1637      O1647   1.262       .  A
N1637      O1648   1.262       .  A
N1639      O1645   1.262       .  A
N1639      O1646   1.262       .  A
C1649      C1650   1.399       .  A
C1649      C1654   1.400       .  A
C1649      H1659   1.083       .  S
C1650      C1655   1.473       .  S
C1650      C1651   1.407       .  A
C1651      C1652   1.399       .  A
C1651      N1656   1.429       .  S
C1652      C1653   1.405       .  A
C1652      H1657   1.083       .  S
C1653      C1654   1.407       .  A
C1654      N1658   1.425       .  S
C1655      C1660   1.404       .  A
C1655      C1664   1.401       .  A
N1656      O1671   1.262       .  A
N1656      O1672   1.262       .  A
N1658      O1669   1.260       .  A
N1658      O1670   1.262       .  A
C1660      C1661   1.397       .  A
C1660      N1665   1.429       .  S
C1661      C1662   1.407       .  A
C1661      H1666   1.078       .  S
C1662      C1663   1.413       .  A
C1663      C1664   1.404       .  A
C1663      N1667   1.430       .  S
C1664      H1668   1.079       .  S
N1665      O1675   1.262       .  A
N1665      O1676   1.262       .  A
N1667      O1673   1.261       .  A
N1667      O1674   1.262       .  A
C1677      N1678   1.367       .  A
C1677      N1682   1.360       .  A
C1677      C2081   1.494       .  S
N1678      C1679   1.366       .  A
C1679      N1680   1.355       .  A
C1679      C1685   1.471       .  S
N1680      C1681   1.352       .  A
C1681      N1682   1.355       .  A
C1681      C2044   1.474       .  S
C1683      N1684   1.362       .  A
C1683      N1688   1.357       .  A
C1683      C2016   1.479       .  S
N1684      C1685   1.361       .  A
C1685      N1686   1.363       .  A
N1686      C1687   1.356       .  A
C1687      N1688   1.354       .  A
C1687      C1988   1.483       .  S
C1689      N1690   1.363       .  A
C1689      N1694   1.365       .  A
C1689      C1941   1.497       .  S
N1690      C1691   1.359       .  A
C1691      N1692   1.357       .  A
C1691      C1699   1.469       .  S
N1692      C1693   1.354       .  A
C1693      N1694   1.359       .  A
C1693      C1960   1.484       .  S
C1695      N1696   1.362       .  A
C1695      N1700   1.366       .  A
C1695      C1876   1.496       .  S
N1696      C1697   1.358       .  A
C1697      N1698   1.351       .  A
C1697      C1904   1.475       .  S
N1698      C1699   1.355       .  A
C1699      N1700   1.362       .  A
C1701      N1702   1.364       .  A
C1701      N1706   1.359       .  A
C1701      C1857   1.497       .  S
N1702      C1703   1.361       .  A
C1703      N1704   1.359       .  A
C1703      C1711   1.468       .  S
N1704      C1705   1.353       .  A
C1705      N1706   1.358       .  A
C1705      C1820   1.487       .  S
C1707      N1708   1.364       .  A
C1707      N1712   1.365       .  A
C1707      C1801   1.499       .  S
N1708      C1709   1.357       .  A
C1709      N1710   1.351       .  A
C1709      C1773   1.477       .  S
N1710      C1711   1.354       .  A
C1711      N1712   1.362       .  A
O1713     Mn1739   2.104       .  S
O1713      C2578   1.273   1_545  A
C1714      C2025   1.486       .  S
C1714      O1747   1.268       .  A
C1714      O1744   1.276       .  A
O1715     Mn1722   2.160       .  S
O1715     Mn1733   2.131       .  S
O1715     Mn1737   2.162       .  S
O1715     Mn2577   2.126       .  S
O1716     Mn1750   2.104       .  S
O1716      C1726   1.273       .  A
O1717     Mn1733   2.091       .  S
O1717      C1740   1.272       .  A
O1718     Mn1737   2.094       .  S
O1718      C1745   1.250       .  A
O1719     Mn1739   1.977       .  S
O1719      C1735   1.219       .  S
C1720      C1969   1.489       .  S
C1720      O1723   1.253       .  A
C1720      O1746   1.218       .  S
O1721     Mn1722   2.169       .  S
O1721     Mn1755   2.119       .  S
O1721     Mn1737   2.172       .  S
Mn1722     O1727   2.109       .  S
Mn1722     O2592   2.111       .  S
O1724     Mn1731   2.089       .  S
O1724      C1726   1.270       .  A
C1725      C1913   1.482       .  S
C1725      O1751   1.254       .  A
C1725      O1738   1.218       .  S
C1726      C2072   1.479       .  S
O1727      C1752   1.255       .  A
O1728     Mn1731   2.124       .  S
O1728     Mn1750   2.129       .  S
O1729     Mn1733   1.960       .  S
O1729     Mn1755   1.962       .  S
O1729      C1752   1.219       .  S
C1730      C1848   1.494       .  S
C1730      O1732   1.272       .  A
Mn1731     O1744   2.110       .  S
Mn1731     O2584   1.970   1_545  S
Mn1731     O2576   1.958   1_545  S
O1732     Mn1755   2.093       .  S
Mn1733     O1749   2.092       .  S
Mn1733     O1743   1.959       .  S
O1734     Mn1739   2.095       .  S
O1734      C2574   1.270   1_545  A
C1735      C1829   1.489       .  S
C1735      O1753   1.254       .  A
C1736      C1885   1.489       .  S
C1736      O2572   1.272       .  A
C1736      O1749   1.270       .  A
Mn1737     O2591   2.102       .  S
O1738     Mn2569   1.961       .  S
O1738     Mn1741   1.959       .  S
Mn1739     O2553   2.129   1_545  S
Mn1739     O1757   1.960       .  S
C1740      C1932   1.488       .  S
C1740      O2551   1.272       .  A
Mn1741     O1748   2.099       .  S
Mn1741     O1756   2.096       .  S
Mn1741     O1746   1.954       .  S
C1742      C1792   1.488       .  S
C1742      O1758   1.273       .  A
O1743     Mn1755   1.958       .  S
O1743      C1745   1.219       .  S
C1745      C2053   1.479       .  S
O1746     Mn2569   1.968       .  S
O1747     Mn1750   2.073       .  S
C1752      C1997   1.488       .  S
O1753     Mn2575   2.111   1_545  S
O1754     Mn2560   2.107   1_545  S
O1754      C1759   1.257       .  A
Mn1755     O1758   2.095       .  S
O1757      C1759   1.221       .  S
C1759      C1764   1.489       .  S
C1760      C1765   1.396       .  A
C1760      H1770   1.083       .  S
C1761      C1766   1.474       .  S
C1761      C1762   1.405       .  A
C1762      C1763   1.406       .  A
C1762      N1767   1.429   1_655  S
C1763      C1764   1.411       .  A
C1763      H1768   1.081       .  S
C1765      N1769   1.430       .  S
C1766      C1775   1.402       .  A
N1767      O1782   1.261   1_455  A
N1767      O1783   1.262       .  A
N1769      O1780   1.260       .  A
N1769      O1781   1.260       .  A
C1771      C2191   1.398       .  A
C1771      N2195   1.429       .  S
C1772      C2190   1.401   1_554  A
C1772      H1777   1.080       .  S
C1773      C2193   1.409   1_554  A
C1774      C2192   1.412       .  A
C1774      C1775   1.403       .  A
C1774      N1778   1.430       .  S
C1775      H1779   1.079       .  S
N1776      C2190   1.429       .  S
N1776      O1786   1.262       .  A
N1776      O2206   1.262   1_556  A
N1778      O1784   1.262       .  A
N1778      O1785   1.261       .  A
O1787      N2195   1.262       .  A
C1788      C1789   1.400   1_455  A
C1788      C1793   1.401       .  A
C1788      H1798   1.080       .  S
C1789      C1794   1.477       .  S
C1789      C1790   1.406       .  A
C1790      C1791   1.400       .  A
C1790      N1795   1.429       .  S
C1791      C1792   1.408       .  A
C1791      H1796   1.078       .  S
C1792      C1793   1.417   1_655  A
C1793      N1797   1.429       .  S
C1794      C1799   1.406       .  A
C1794      C1803   1.402       .  A
N1795      O2229   1.262       .  A
N1795      O2230   1.261       .  A
N1797      O1808   1.261       .  A
N1797      O1809   1.262       .  A
C1799      C1800   1.397       .  A
C1799      N1804   1.429       .  S
C1800      C2220   1.406       .  A
C1800      H1805   1.083       .  S
C1801      C2219   1.411   1_554  A
C1801      C1802   1.420       .  A
C1802      C2222   1.406   1_554  A
C1803      C2221   1.405       .  A
N1804      O1814   1.262       .  A
N1804      O1815   1.262       .  A
N1806      O1812   1.262       .  A
N1806      O1813   1.262       .  A
O1810      N2214   1.262       .  A
O1811      N2214   1.262       .  A
C1816      C1821   1.402       .  A
C1816      H1826   1.081       .  S
C1817      C1822   1.488       .  S
C1817      C1818   1.412       .  A
C1818      C1819   1.396       .  A
C1818      N1823   1.430       .  S
C1819      C1820   1.402       .  A
C1819      H1824   1.079       .  S
C1821      N1825   1.430       .  S
C1822      C1827   1.412       .  A
C1822      C1831   1.397       .  A
N1823      O1838   1.262       .  A
N1823      O1839   1.261       .  A
N1825      O1836   1.262       .  A
N1825      O1837   1.262       .  A
C1827      C1828   1.410       .  A
C1827      N1832   1.428       .  S
C1828      C1829   1.408       .  A
C1828      H1833   1.082       .  S
C1829      C1830   1.415   1_655  A
C1830      C1831   1.394   1_455  A
C1830      N1834   1.426       .  S
C1831      H1835   1.082   1_655  S
N1832      O1842   1.262       .  A
N1832      O1843   1.262       .  A
N1834      O1840   1.262       .  A
N1834      O1841   1.259       .  A
C1844      C1849   1.401       .  A
C1844      H1854   1.086       .  S
C1845      C1850   1.485       .  S
C1845      C1846   1.409       .  A
C1846      C1847   1.403       .  A
C1846      N1851   1.430       .  S
C1847      C1848   1.410       .  A
C1847      H1852   1.081       .  S
C1849      N1853   1.429       .  S
C1850      C1859   1.400       .  A
N1851      O1866   1.262       .  A
N1851      O1867   1.261       .  A
N1853      O1864   1.261       .  A
N1853      O1865   1.262       .  A
C1855      C1856   1.407       .  A
C1855      N1860   1.430       .  S
C1856      H1861   1.077       .  S
C1857      C1858   1.420       .  A
C1858      C1859   1.399       .  A
C1858      N1862   1.429       .  S
C1859      H1863   1.082       .  S
N1860      O1870   1.262       .  A
N1860      O1871   1.262       .  A
N1862      O1868   1.262   1_655  A
N1862      O1869   1.262       .  A
C1872      C1873   1.402       .  A
C1872      C1877   1.406       .  A
C1872      H2720   1.081       .  S
C1873      C1878   1.481       .  S
C1873      C1874   1.407       .  A
C1874      C2294   1.401       .  A
C1874      N2298   1.430       .  S
C1875      C2293   1.406       .  A
C1875      C1876   1.409       .  A
C1875      H1880   1.079       .  S
C1876      C2296   1.419   1_554  A
C1877      C2295   1.414       .  A
C1877      N2719   1.429       .  S
C1878      C1883   1.407       .  A
C1878      C1887   1.401       .  A
N1879      C2293   1.430       .  S
N1879      O1894   1.262       .  A
N1879      O2314   1.262       .  A
N1881      C2715   1.431       .  S
N1881      O1892   1.262       .  A
N1881      O1893   1.262       .  A
H1882      C2710   1.084       .  S
C1883      C1884   1.402       .  A
C1883      N1888   1.429       .  S
C1884      C1885   1.409       .  A
C1884      H1889   1.072       .  S
C1885      C1886   1.416       .  A
C1886      C1887   1.402       .  A
C1886      N1890   1.429       .  S
C1887      H1891   1.077       .  S
N1888      O1898   1.262       .  A
N1888      O1899   1.262       .  A
N1890      O2734   1.262       .  A
N1890      O2735   1.262       .  A
O1895      N2298   1.262       .  A
O1896      N2728   1.262       .  A
O1897      N2728   1.262       .  A
C1900      C1901   1.406       .  A
C1900      C1905   1.401       .  A
C1900      H1910   1.079       .  S
C1901      C1906   1.493       .  S
C1901      C2740   1.410       .  A
C1902      C2739   1.408       .  A
C1902      C2322   1.399       .  A
C1902      N1907   1.427   1_565  S
C1903      C2321   1.404       .  A
C1903      C2742   1.408       .  A
C1903      H1908   1.082   1_565  S
C1904      C2741   1.406       .  A
C1904      C2324   1.407   1_554  A
C1905      C2323   1.415       .  A
C1905      N1909   1.429       .  S
C1906      C1911   1.412       .  A
C1906      C1915   1.409       .  A
N1907      O2341   1.261   1_545  A
N1907      O1923   1.261       .  A
N1909      O1920   1.262       .  A
N1909      O1921   1.262       .  A
C1911      C1912   1.396       .  A
C1911      N1916   1.430       .  S
C1912      C1913   1.404       .  A
C1912      H1917   1.080       .  S
C1913      C1914   1.411       .  A
C1914      C1915   1.407       .  A
C1914      N1918   1.429       .  S
C1915      H1919   1.078       .  S
N1916      O1926   1.262       .  A
N1916      O1927   1.262       .  A
N1918      O1924   1.261       .  A
N1918      O1925   1.262       .  A
O1922      N2326   1.262       .  A
C1928      C1929   1.401       .  A
C1928      C1933   1.402       .  A
C1928      H1938   1.081       .  S
C1929      C1934   1.480       .  S
C1929      C1930   1.405       .  A
C1930      C1931   1.401       .  A
C1930      N1935   1.427       .  S
C1931      C1932   1.408       .  A
C1931      H1936   1.081       .  S
C1932      C1933   1.417       .  A
C1933      N1937   1.429       .  S
C1934      C1939   1.405       .  A
C1934      C1943   1.399       .  A
N1935      O1950   1.261       .  A
N1935      O1951   1.262       .  A
N1937      O1948   1.262       .  A
N1937      O1949   1.262       .  A
C1939      C1940   1.399       .  A
C1939      N1944   1.429       .  S
C1940      C1941   1.409       .  A
C1940      H1945   1.081       .  S
C1941      C1942   1.421       .  A
C1942      C1943   1.405       .  A
C1942      N2784   1.429       .  S
C1943      H2785   1.082       .  S
N1944      O1954   1.262       .  A
N1944      O1955   1.262       .  A
N1946      C2780   1.429       .  S
N1946      O1952   1.262   1_565  A
N1946      O1953   1.262       .  A
H1947      C2781   1.083       .  S
C1956      C1957   1.406       .  A
C1956      C1961   1.401       .  A
C1956      H1966   1.080       .  S
C1957      C1962   1.492       .  S
C1957      C1958   1.415       .  A
C1958      C1959   1.405       .  A
C1958      N1963   1.432       .  S
C1959      C1960   1.406       .  A
C1959      H1964   1.080       .  S
C1960      C1961   1.409       .  A
C1961      N1965   1.428       .  S
C1962      C1967   1.415       .  A
C1962      C1971   1.402       .  A
N1963      O1978   1.262       .  A
N1963      O1979   1.262       .  A
N1965      O1976   1.262       .  A
N1965      O1977   1.262       .  A
C1967      C1968   1.406       .  A
C1967      N2810   1.431       .  S
C1968      C1969   1.407       .  A
C1968      H2811   1.084       .  S
C1969      C1970   1.415       .  A
C1970      C1971   1.397       .  A
C1970      N1974   1.429       .  S
C1971      H1975   1.085       .  S
N1972      C2805   1.429       .  S
N1972      O1982   1.262       .  A
N1972      O1983   1.262       .  A
H1973      C2806   1.085       .  S
N1974      O1980   1.262       .  A
N1974      O1981   1.262       .  A
C1984      C1985   1.405       .  A
C1984      C2408   1.407       .  A
C1984      H1994   1.079       .  S
C1985      C1990   1.488       .  S
C1985      C1986   1.409       .  A
C1986      C1987   1.399       .  A
C1986      N1991   1.429       .  S
C1987      C2407   1.405       .  A
C1987      H1992   1.079       .  S
C1988      C2406   1.403   1_554  A
C1988      C1989   1.411       .  A
C1989      C2403   1.405       .  A
C1989      N1993   1.429       .  S
C1990      C1995   1.410       .  A
C1990      C1999   1.402       .  A
N1991      O2006   1.262       .  A
N1991      O2007   1.262       .  A
N1993      O2004   1.262       .  A
N1993      O2005   1.262       .  A
C1995      C1996   1.406       .  A
C1995      N2000   1.428       .  S
C1996      C1997   1.407       .  A
C1996      H2001   1.079       .  S
C1997      C1998   1.417       .  A
C1998      C1999   1.399       .  A
C1998      N2002   1.430       .  S
C1999      H2003   1.078       .  S
N2000      O2429   1.262       .  A
N2000      O2430   1.262       .  A
N2002      O2008   1.262       .  A
N2002      O2009   1.262       .  A
O2010      N2419   1.262   1_554  A
O2011      N2419   1.261   1_554  A
C2012      C2013   1.401       .  A
C2012      C2436   1.403       .  A
C2012      H2022   1.080       .  S
C2013      C2018   1.482       .  S
C2013      C2014   1.407       .  A
C2014      C2015   1.397       .  A
C2014      N2019   1.430       .  S
C2015      C2435   1.410       .  A
C2015      H2020   1.081       .  S
C2016      C2434   1.406   1_554  A
C2016      C2017   1.413       .  A
C2017      C2431   1.402   1_554  A
C2017      N2021   1.428       .  S
C2018      C2023   1.409       .  A
C2018      C2027   1.399       .  A
N2019      O2034   1.262       .  A
N2019      O2035   1.262       .  A
N2021      O2032   1.262       .  A
N2021      O2033   1.261       .  A
C2023      C2024   1.403       .  A
C2023      N2028   1.427       .  S
C2024      C2025   1.406       .  A
C2024      H2029   1.080       .  S
C2025      C2026   1.419       .  A
C2026      C2027   1.397       .  A
C2026      N2030   1.430       .  S
C2027      H2031   1.080       .  S
N2028      O2457   1.261       .  A
N2028      O2458   1.262       .  A
N2030      O2036   1.262       .  A
N2030      O2037   1.262       .  A
O2038      N2447   1.261       .  A
O2039      N2447   1.262       .  A
C2040      C2041   1.404       .  A
C2040      C2045   1.398       .  A
C2040      H2050   1.082       .  S
C2041      C2046   1.481       .  S
C2041      C2042   1.409       .  A
C2042      C2043   1.398       .  A
C2042      N2047   1.428       .  S
C2043      C2044   1.404       .  A
C2043      H2048   1.082       .  S
C2044      C2045   1.409       .  A
C2045      N2049   1.429       .  S
C2046      C2051   1.409       .  A
C2046      C2055   1.404       .  A
N2047      O2062   1.262       .  A
N2047      O2063   1.261       .  A
N2049      O2060   1.262       .  A
N2049      O2061   1.262       .  A
C2051      C2052   1.392       .  A
C2051      N2056   1.430       .  S
C2052      C2053   1.403       .  A
C2052      H2057   1.082       .  S
C2053      C2054   1.413       .  A
C2054      C2055   1.403       .  A
C2054      N2058   1.429       .  S
C2055      H2059   1.081       .  S
N2056      O2066   1.262       .  A
N2056      O2067   1.262       .  A
N2058      O2064   1.262       .  A
N2058      O2065   1.262       .  A
C2068      C2069   1.401       .  A
C2068      C2073   1.403       .  A
C2068      H2078   1.085       .  S
C2069      C2074   1.487       .  S
C2069      C2070   1.413       .  A
C2070      C2071   1.403       .  A
C2070      N2075   1.430       .  S
C2071      C2072   1.403       .  A
C2071      H2076   1.085       .  S
C2072      C2073   1.411       .  A
C2073      N2077   1.430       .  S
C2074      C2079   1.409       .  A
C2074      C2083   1.404       .  A
N2075      O2090   1.262       .  A
N2075      O2091   1.262       .  A
N2077      O2088   1.261       .  A
N2077      O2089   1.262       .  A
C2079      C2080   1.402       .  A
C2079      N2084   1.432       .  S
C2080      C2081   1.409       .  A
C2080      H2085   1.075       .  S
C2081      C2082   1.414       .  A
C2082      C2083   1.406       .  A
C2082      N2086   1.428       .  S
C2083      H2087   1.078       .  S
N2084      O2094   1.262       .  A
N2084      O2095   1.262       .  A
N2086      O2092   1.261       .  A
N2086      O2093   1.262       .  A
C2096      N2097   1.365       .  A
C2096      N2101   1.356       .  A
C2096      C2500   1.479       .  S
N2097      C2098   1.365       .  A
C2098      N2099   1.357       .  A
C2098      C2104   1.472       .  S
N2099      C2100   1.354       .  A
C2100      N2101   1.353       .  A
C2100      C2463   1.479       .  S
C2102      N2103   1.362       .  A
C2102      N2107   1.359       .  A
C2102      C2435   1.494       .  S
N2103      C2104   1.361       .  A
C2104      N2105   1.362       .  A
N2105      C2106   1.357       .  A
C2106      N2107   1.355       .  A
C2106      C2407   1.487       .  S
C2108      N2109   1.361       .  A
C2108      N2113   1.359       .  A
C2108      C2360   1.490       .  S
N2109      C2110   1.362       .  A
C2110      N2111   1.365       .  A
C2110      C2118   1.476       .  S
N2111      C2112   1.360       .  A
C2112      N2113   1.357       .  A
C2112      C2379   1.487       .  S
C2114      N2115   1.360       .  A
C2114      N2119   1.362       .  A
C2114      C2295   1.487       .  S
N2115      C2116   1.359       .  A
C2116      N2117   1.359       .  A
C2116      C2323   1.492       .  S
N2117      C2118   1.358       .  A
C2118      N2119   1.363       .  A
C2120      N2121   1.360       .  A
C2120      N2125   1.361       .  A
C2120      C2276   1.484       .  S
N2121      C2122   1.358       .  A
C2122      N2123   1.357       .  A
C2122      C2130   1.466       .  S
N2123      C2124   1.355       .  A
C2124      N2125   1.361       .  A
C2124      C2239   1.487       .  S
C2126      N2127   1.359       .  A
C2126      N2131   1.361       .  A
C2126      C2220   1.485       .  S
N2127      C2128   1.356       .  A
C2128      N2129   1.354       .  A
C2128      C2192   1.473       .  S
N2129      C2130   1.358       .  A
C2130      N2131   1.361       .  A
O2132     Mn2158   2.083       .  S
O2132      C2997   1.270   1_545  A
C2133      C2444   1.490       .  S
C2133      O2166   1.273       .  A
C2133      O2163   1.271       .  A
O2134     Mn2141   2.170       .  S
O2134     Mn2152   2.120       .  S
O2134     Mn2156   2.168       .  S
O2134     Mn2996   2.134       .  S
O2135     Mn2169   2.091       .  S
O2135      C2145   1.271       .  A
O2136     Mn2152   2.102       .  S
O2136      C2159   1.274       .  A
O2137     Mn2156   2.088       .  S
O2137      C2164   1.249       .  A
O2138     Mn2158   1.978       .  S
O2138      C2154   1.224       .  S
C2139      C2388   1.497       .  S
C2139      O2142   1.255       .  A
C2139      O2165   1.216       .  S
O2140     Mn2141   2.174       .  S
O2140     Mn2174   2.122       .  S
O2140     Mn2156   2.161       .  S
Mn2141     O2146   2.107       .  S
Mn2141     O3011   2.124       .  S
O2143     Mn2150   2.099       .  S
O2143      C2145   1.274       .  A
C2144      C2332   1.482       .  S
C2144      O2170   1.253       .  A
C2144      O2157   1.221       .  S
C2145      C2491   1.485       .  S
O2146      C2171   1.255       .  A
O2147     Mn2150   2.124       .  S
O2147     Mn2169   2.125       .  S
O2148     Mn2152   1.965       .  S
O2148     Mn2174   1.957       .  S
O2148      C2171   1.218       .  S
C2149      C2267   1.498       .  S
C2149      O2151   1.272       .  A
Mn2150     O2163   2.088       .  S
Mn2150     O3003   1.963   1_545  S
Mn2150     O2995   1.963   1_545  S
O2151     Mn2174   2.092       .  S
Mn2152     O2168   2.096       .  S
Mn2152     O2162   1.961       .  S
O2153     Mn2158   2.097       .  S
O2153      C2993   1.271   1_545  A
C2154      C2248   1.485       .  S
C2154      O2172   1.256       .  A
C2155      C2304   1.497       .  S
C2155      O2991   1.272       .  A
C2155      O2168   1.273       .  A
Mn2156     O3010   2.078       .  S
O2157     Mn2988   1.966       .  S
O2157     Mn2160   1.967       .  S
Mn2158     O2972   2.130   1_545  S
Mn2158     O2176   1.934       .  S
C2159      C2351   1.483       .  S
C2159      O2970   1.271       .  A
Mn2160     O2167   2.096       .  S
Mn2160     O2175   2.110       .  S
Mn2160     O2165   1.952       .  S
C2161      C2211   1.494       .  S
C2161      O2177   1.273       .  A
O2162     Mn2174   1.965       .  S
O2162      C2164   1.219       .  S
C2164      C2472   1.474       .  S
O2165     Mn2988   1.968       .  S
O2166     Mn2169   2.102       .  S
C2171      C2416   1.489       .  S
O2172     Mn2994   2.097   1_545  S
O2173     Mn2979   2.126   1_545  S
O2173      C2178   1.254       .  A
Mn2174     O2177   2.097       .  S
O2176      C2178   1.214       .  S
C2178      C2183   1.490       .  S
C2179      C2184   1.392       .  A
C2179      H2189   1.086       .  S
C2180      C2185   1.478       .  S
C2180      C2181   1.410       .  A
C2181      C2182   1.409       .  A
C2181      N2186   1.428       .  S
C2182      C2183   1.409       .  A
C2182      H2187   1.082       .  S
C2184      N2188   1.424       .  S
C2185      C2194   1.403       .  A
N2186      O2201   1.262       .  A
N2186      O2202   1.261   1_556  A
N2188      O2199   1.261       .  A
N2188      O2200   1.262       .  A
C2191      H2196   1.087       .  S
C2193      C2194   1.399       .  A
C2193      N2197   1.428       .  S
C2194      H2198   1.083       .  S
N2195      O2205   1.262       .  A
N2197      O2203   1.262       .  A
N2197      O2204   1.262       .  A
C2207      C2208   1.399       .  A
C2207      C2212   1.402   1_655  A
C2207      H2217   1.072   1_655  S
C2208      C2213   1.480       .  S
C2208      C2209   1.405       .  A
C2209      C2210   1.403       .  A
C2209      N2214   1.428       .  S
C2210      C2211   1.412       .  A
C2210      H2215   1.068       .  S
C2211      C2212   1.419   1_655  A
C2212      N2216   1.429       .  S
C2213      C2218   1.404       .  A
C2213      C2222   1.400       .  A
N2216      O2227   1.262       .  A
N2216      O2228   1.261       .  A
C2218      C2219   1.399       .  A
C2218      N2223   1.429       .  S
C2219      H2224   1.075       .  S
C2220      C2221   1.415       .  A
N2223      O2233   1.262       .  A
N2223      O2234   1.262       .  A
N2225      O2231   1.262       .  A
N2225      O2232   1.262       .  A
C2235      C2240   1.404       .  A
C2235      H2245   1.075       .  S
C2236      C2241   1.480       .  S
C2236      C2237   1.408       .  A
C2237      C2238   1.398       .  A
C2237      N2242   1.429       .  S
C2238      C2239   1.405       .  A
C2238      H2243   1.076       .  S
C2240      N2244   1.430       .  S
C2241      C2246   1.408       .  A
C2241      C2250   1.395       .  A
N2242      O2257   1.262       .  A
N2242      O2258   1.262       .  A
N2244      O2255   1.261       .  A
N2244      O2256   1.262       .  A
C2246      C2247   1.407       .  A
C2246      N2251   1.428       .  S
C2247      C2248   1.409       .  A
C2247      H2252   1.081       .  S
C2248      C2249   1.414       .  A
C2249      C2250   1.394       .  A
C2249      N2253   1.425   1_655  S
C2250      H2254   1.081       .  S
N2251      O2261   1.262       .  A
N2251      O2262   1.262       .  A
N2253      O2259   1.260       .  A
N2253      O2260   1.260       .  A
C2263      C2268   1.405       .  A
C2263      H2273   1.079       .  S
C2264      C2269   1.489       .  S
C2264      C2265   1.409       .  A
C2265      C2266   1.402       .  A
C2265      N2270   1.430       .  S
C2266      C2267   1.411       .  A
C2266      H2271   1.078       .  S
C2268      N2272   1.430       .  S
C2269      C2278   1.404       .  A
N2270      O2285   1.262       .  A
N2270      O2286   1.262       .  A
N2272      O2283   1.262       .  A
N2272      O2284   1.262       .  A
C2274      C2275   1.404       .  A
C2274      N2279   1.428       .  S
C2275      H2280   1.078       .  S
C2276      C2277   1.412       .  A
C2277      C2278   1.402       .  A
C2277      N2281   1.429       .  S
C2278      H2282   1.076       .  S
N2279      O2289   1.262       .  A
N2279      O2290   1.261       .  A
N2281      O2287   1.262       .  A
N2281      O2288   1.262       .  A
C2291      C2292   1.400       .  A
C2291      C2296   1.401       .  A
C2291      H3139   1.081       .  S
C2292      C2297   1.488       .  S
C2292      C2293   1.410   1_556  A
C2294      C2295   1.406       .  A
C2294      H2299   1.080       .  S
C2296      N3138   1.430       .  S
C2297      C2302   1.409       .  A
C2297      C2306   1.402       .  A
N2298      O2313   1.262       .  A
N2300      C3134   1.429       .  S
N2300      O2311   1.261       .  A
N2300      O2312   1.262       .  A
H2301      C3129   1.083       .  S
C2302      C2303   1.403       .  A
C2302      N2307   1.428       .  S
C2303      C2304   1.409       .  A
C2303      H2308   1.080       .  S
C2304      C2305   1.418       .  A
C2305      C2306   1.404       .  A
C2305      N2309   1.428       .  S
C2306      H2310   1.080       .  S
N2307      O2317   1.262       .  A
N2307      O2318   1.261       .  A
N2309      O3153   1.261       .  A
N2309      O3154   1.261       .  A
O2315      N3147   1.261       .  A
O2316      N3147   1.262       .  A
C2319      C2320   1.405       .  A
C2319      C2324   1.399       .  A
C2319      H2329   1.079       .  S
C2320      C2325   1.481       .  S
C2320      C3159   1.408   1_556  A
C2321      C3158   1.408   1_554  A
C2321      N2326   1.429   1_565  S
C2322      C3161   1.404       .  A
C2322      H2327   1.083       .  S
C2323      C3160   1.408       .  A
C2324      N2328   1.430       .  S
C2325      C2330   1.406       .  A
C2325      C2334   1.405       .  A
N2326      O2342   1.262       .  A
N2328      O2339   1.262       .  A
N2328      O2340   1.262       .  A
C2330      C2331   1.392       .  A
C2330      N2335   1.430       .  S
C2331      C2332   1.405       .  A
C2331      H2336   1.082       .  S
C2332      C2333   1.414       .  A
C2333      C2334   1.406       .  A
C2333      N2337   1.429       .  S
C2334      H2338   1.082       .  S
N2335      O2345   1.262       .  A
N2335      O2346   1.262       .  A
N2337      O2343   1.262       .  A
N2337      O2344   1.262       .  A
C2347      C2348   1.401       .  A
C2347      C2352   1.402       .  A
C2347      H2357   1.079       .  S
C2348      C2353   1.481       .  S
C2348      C2349   1.406       .  A
C2349      C2350   1.402       .  A
C2349      N2354   1.427       .  S
C2350      C2351   1.406       .  A
C2350      H2355   1.078       .  S
C2351      C2352   1.415       .  A
C2352      N2356   1.430       .  S
C2353      C2358   1.405       .  A
C2353      C2362   1.402       .  A
N2354      O2369   1.261       .  A
N2354      O2370   1.262       .  A
N2356      O2367   1.262       .  A
N2356      O2368   1.262       .  A
C2358      C2359   1.398       .  A
C2358      N2363   1.429       .  S
C2359      C2360   1.407       .  A
C2359      H2364   1.083       .  S
C2360      C2361   1.417       .  A
C2361      C2362   1.407       .  A
C2361      N3203   1.430       .  S
C2362      H3204   1.083       .  S
N2363      O2373   1.262       .  A
N2363      O2374   1.262       .  A
N2365      C3199   1.426       .  S
N2365      O2371   1.262       .  A
N2365      O2372   1.261       .  A
H2366      C3200   1.082       .  S
C2375      C2376   1.409       .  A
C2375      C2380   1.409       .  A
C2375      H2385   1.080       .  S
C2376      C2381   1.501       .  S
C2376      C2377   1.416       .  A
C2377      C2378   1.401       .  A
C2377      N2382   1.430       .  S
C2378      C2379   1.402       .  A
C2378      H2383   1.082       .  S
C2379      C2380   1.411       .  A
C2380      N2384   1.428       .  S
C2381      C2386   1.415       .  A
C2381      C2390   1.406       .  A
N2382      O2397   1.262       .  A
N2382      O2398   1.261       .  A
N2384      O2395   1.262       .  A
N2384      O2396   1.262       .  A
C2386      C2387   1.408       .  A
C2386      N3229   1.428       .  S
C2387      C2388   1.407       .  A
C2387      H3230   1.081       .  S
C2388      C2389   1.418       .  A
C2389      C2390   1.402       .  A
C2389      N2393   1.430       .  S
C2390      H2394   1.080       .  S
N2391      C3224   1.429       .  S
N2391      O2401   1.262       .  A
N2391      O2402   1.262       .  A
H2392      C3225   1.079       .  S
N2393      O2399   1.262       .  A
N2393      O2400   1.262       .  A
C2403      C2404   1.406   1_554  A
C2403      H2413   1.078       .  S
C2404      C2409   1.491       .  S
C2404      C2405   1.413       .  A
C2405      C2406   1.399       .  A
C2405      N2410   1.430       .  S
C2406      H2411   1.080       .  S
C2407      C2408   1.415       .  A
C2408      N2412   1.430       .  S
C2409      C2414   1.412       .  A
C2409      C2418   1.402       .  A
N2410      O2425   1.262       .  A
N2410      O2426   1.261       .  A
N2412      O2423   1.262       .  A
N2412      O2424   1.262       .  A
C2414      C2415   1.406       .  A
C2414      N2419   1.429       .  S
C2415      C2416   1.407       .  A
C2415      H2420   1.081       .  S
C2416      C2417   1.417       .  A
C2417      C2418   1.398       .  A
C2417      N2421   1.431       .  S
C2418      H2422   1.080       .  S
N2421      O2427   1.262       .  A
N2421      O2428   1.262       .  A
C2431      C2432   1.401       .  A
C2431      H2441   1.081       .  S
C2432      C2437   1.473       .  S
C2432      C2433   1.405       .  A
C2433      C2434   1.395       .  A
C2433      N2438   1.429       .  S
C2434      H2439   1.081       .  S
C2435      C2436   1.417       .  A
C2436      N2440   1.427       .  S
C2437      C2442   1.404       .  A
C2437      C2446   1.395       .  A
N2438      O2453   1.262       .  A
N2438      O2454   1.262       .  A
N2440      O2451   1.262       .  A
N2440      O2452   1.261       .  A
C2442      C2443   1.400       .  A
C2442      N2447   1.428       .  S
C2443      C2444   1.410       .  A
C2443      H2448   1.080       .  S
C2444      C2445   1.415       .  A
C2445      C2446   1.397       .  A
C2445      N2449   1.423       .  S
C2446      H2450   1.081       .  S
N2449      O2455   1.260       .  A
N2449      O2456   1.261       .  A
C2459      C2460   1.402       .  A
C2459      C2464   1.396       .  A
C2459      H2469   1.080       .  S
C2460      C2465   1.478       .  S
C2460      C2461   1.407       .  A
C2461      C2462   1.399       .  A
C2461      N2466   1.428       .  S
C2462      C2463   1.406       .  A
C2462      H2467   1.080       .  S
C2463      C2464   1.413       .  A
C2464      N2468   1.429       .  S
C2465      C2470   1.409       .  A
C2465      C2474   1.404       .  A
N2466      O2481   1.262       .  A
N2466      O2482   1.261       .  A
N2468      O2479   1.262       .  A
N2468      O2480   1.262       .  A
C2470      C2471   1.392       .  A
C2470      N2475   1.430       .  S
C2471      C2472   1.403       .  A
C2471      H2476   1.079       .  S
C2472      C2473   1.412       .  A
C2473      C2474   1.402       .  A
C2473      N2477   1.429       .  S
C2474      H2478   1.078       .  S
N2475      O2485   1.262       .  A
N2475      O2486   1.262       .  A
N2477      O2483   1.261       .  A
N2477      O2484   1.262       .  A
C2487      C2488   1.397       .  A
C2487      C2492   1.400       .  A
C2487      H2497   1.083       .  S
C2488      C2493   1.475       .  S
C2488      C2489   1.406       .  A
C2489      C2490   1.401       .  A
C2489      N2494   1.428       .  S
C2490      C2491   1.406       .  A
C2490      H2495   1.081       .  S
C2491      C2492   1.409       .  A
C2492      N2496   1.422       .  S
C2493      C2498   1.404       .  A
C2493      C2502   1.402       .  A
N2494      O2509   1.262       .  A
N2494      O2510   1.262       .  A
N2496      O2507   1.260       .  A
N2496      O2508   1.261       .  A
C2498      C2499   1.397       .  A
C2498      N2503   1.429       .  S
C2499      C2500   1.406       .  A
C2499      H2504   1.078       .  S
C2500      C2501   1.412       .  A
C2501      C2502   1.405       .  A
C2501      N2505   1.429       .  S
C2502      H2506   1.078       .  S
N2503      O2513   1.262       .  A
N2503      O2514   1.262       .  A
N2505      O2511   1.261       .  A
N2505      O2512   1.262       .  A
C2515      N2516   1.363       .  A
C2515      N2520   1.359       .  A
C2515      C2919   1.490       .  S
N2516      C2517   1.362       .  A
C2517      N2518   1.355       .  A
C2517      C2523   1.466       .  S
N2518      C2519   1.353       .  A
C2519      N2520   1.355       .  A
C2519      C2882   1.472       .  S
C2521      N2522   1.358       .  A
C2521      N2526   1.357       .  A
C2521      C2854   1.474       .  S
N2522      C2523   1.358       .  A
C2523      N2524   1.361       .  A
N2524      C2525   1.356       .  A
C2525      N2526   1.356       .  A
C2525      C2826   1.479       .  S
C2527      N2528   1.362       .  A
C2527      N2532   1.364       .  A
C2527      C2779   1.494       .  S
N2528      C2529   1.359       .  A
C2529      N2530   1.357       .  A
C2529      C2537   1.470       .  S
N2530      C2531   1.355       .  A
C2531      N2532   1.360       .  A
C2531      C2798   1.479       .  S
C2533      N2534   1.363       .  A
C2533      N2538   1.362       .  A
C2533      C2714   1.489       .  S
N2534      C2535   1.361       .  A
C2535      N2536   1.355       .  A
C2535      C2742   1.482       .  S
N2536      C2537   1.357       .  A
C2537      N2538   1.360       .  A
C2539      N2540   1.363       .  A
C2539      N2544   1.361       .  A
C2539      C2695   1.485       .  S
N2540      C2541   1.360       .  A
C2541      N2542   1.358       .  A
C2541      C2549   1.470       .  S
N2542      C2543   1.354       .  A
C2543      N2544   1.360       .  A
C2543      C2658   1.485       .  S
C2545      N2546   1.359       .  A
C2545      N2550   1.365       .  A
C2545      C2639   1.496       .  S
N2546      C2547   1.352       .  A
C2547      N2548   1.351       .  A
C2547      C2611   1.470       .  S
N2548      C2549   1.357       .  A
C2549      N2550   1.365       .  A
O2551     Mn2577   2.095       .  S
C2552      C2863   1.491       .  S
C2552      O2585   1.269       .  A
C2552      O2582   1.275       .  A
O2553     Mn2560   2.167       .  S
O2553     Mn2571   2.131       .  S
O2553     Mn2575   2.161       .  S
O2554     Mn2588   2.094       .  S
O2554      C2564   1.271       .  A
O2555     Mn2571   2.083       .  S
O2555      C2578   1.271       .  A
O2556     Mn2575   2.089       .  S
O2556      C2583   1.250       .  A
O2557     Mn2577   1.975       .  S
O2557      C2573   1.221       .  S
C2558      C2807   1.490       .  S
C2558      O2561   1.253       .  A
C2558      O2584   1.216       .  S
O2559     Mn2560   2.171       .  S
O2559     Mn2593   2.121       .  S
O2559     Mn2575   2.169       .  S
Mn2560     O2565   2.107       .  S
O2562     Mn2569   2.095       .  S
O2562      C2564   1.272       .  A
C2563      C2751   1.484       .  S
C2563      O2589   1.255       .  A
C2563      O2576   1.217       .  S
C2564      C2910   1.480       .  S
O2565      C2590   1.254       .  A
O2566     Mn2569   2.123       .  S
O2566     Mn2588   2.129       .  S
O2567     Mn2571   1.961       .  S
O2567     Mn2593   1.964       .  S
O2567      C2590   1.220       .  S
C2568      C2686   1.492       .  S
C2568      O2570   1.272       .  A
Mn2569     O2582   2.103       .  S
O2570     Mn2593   2.090       .  S
Mn2571     O2587   2.086       .  S
Mn2571     O2581   1.957       .  S
O2572     Mn2577   2.096       .  S
C2573      C2667   1.482       .  S
C2573      O2591   1.255       .  A
C2574      C2723   1.486       .  S
C2574      O2587   1.269       .  A
O2576     Mn2579   1.960       .  S
Mn2577     O2595   1.957       .  S
C2578      C2770   1.493       .  S
Mn2579     O2586   2.090       .  S
Mn2579     O2594   2.111       .  S
Mn2579     O2584   1.950       .  S
C2580      C2630   1.481       .  S
C2580      O2596   1.271       .  A
O2581     Mn2593   1.960       .  S
O2581      C2583   1.220       .  S
C2583      C2891   1.477       .  S
O2585     Mn2588   2.082       .  S
C2590      C2835   1.492       .  S
O2592      C2597   1.255       .  A
Mn2593     O2596   2.091       .  S
O2595      C2597   1.218       .  S
C2597      C2602   1.487       .  S
C2598      C2603   1.395       .  A
C2598      H2608   1.084       .  S
C2599      C2604   1.475       .  S
C2599      C2600   1.406   1_655  A
C2600      C2601   1.406       .  A
C2600      N2605   1.428       .  S
C2601      C2602   1.409   1_455  A
C2601      H2606   1.085       .  S
C2603      N2607   1.429       .  S
C2604      C2613   1.401       .  A
N2605      O2620   1.261       .  A
N2605      O2621   1.262       .  A
N2607      O2618   1.260       .  A
N2607      O2619   1.261       .  A
C2609      C3029   1.396       .  A
C2609      N3033   1.429       .  S
C2610      C3028   1.398   1_554  A
C2610      H2615   1.080       .  S
C2611      C3031   1.409   1_554  A
C2612      C3030   1.413       .  A
C2612      C2613   1.402       .  A
C2612      N2616   1.431       .  S
C2613      H2617   1.084       .  S
N2614      C3028   1.429       .  S
N2614      O2624   1.262       .  A
N2614      O3044   1.262   1_556  A
N2616      O2622   1.262       .  A
N2616      O2623   1.262       .  A
O2625      N3033   1.262       .  A
C2626      C2627   1.398   1_455  A
C2626      C2631   1.396       .  A
C2626      H2636   1.082       .  S
C2627      C2632   1.474       .  S
C2627      C2628   1.406       .  A
C2628      C2629   1.400       .  A
C2628      N2633   1.428       .  S
C2629      C2630   1.407       .  A
C2629      H2634   1.082       .  S
C2630      C2631   1.416   1_655  A
C2631      N2635   1.429       .  S
C2632      C2637   1.405       .  A
C2632      C2641   1.400       .  A
N2633      O3067   1.262       .  A
N2633      O3068   1.262       .  A
N2635      O2646   1.261       .  A
N2635      O2647   1.262       .  A
C2637      C2638   1.394       .  A
C2637      N2642   1.429       .  S
C2638      C3058   1.408       .  A
C2638      H2643   1.077       .  S
C2639      C3057   1.411   1_554  A
C2639      C2640   1.418       .  A
C2640      C3060   1.408   1_554  A
C2641      C3059   1.403       .  A
N2642      O2652   1.262   1_655  A
N2642      O2653   1.262       .  A
N2644      O2650   1.262       .  A
N2644      O2651   1.262       .  A
O2648      N3052   1.262       .  A
O2649      N3052   1.262       .  A
C2654      C2659   1.402       .  A
C2654      H2664   1.081       .  S
C2655      C2660   1.480       .  S
C2655      C2656   1.409       .  A
C2656      C2657   1.399       .  A
C2656      N2661   1.429       .  S
C2657      C2658   1.404       .  A
C2657      H2662   1.074       .  S
C2659      N2663   1.430       .  S
C2660      C2665   1.409       .  A
C2660      C2669   1.397       .  A
N2661      O2676   1.262       .  A
N2661      O2677   1.262       .  A
N2663      O2674   1.262       .  A
N2663      O2675   1.262       .  A
C2665      C2666   1.406       .  A
C2665      N2670   1.428       .  S
C2666      C2667   1.407       .  A
C2666      H2671   1.082       .  S
C2667      C2668   1.414       .  A
C2668      C2669   1.394       .  A
C2668      N2672   1.427   1_655  S
C2669      H2673   1.082   1_655  S
N2670      O2680   1.262       .  A
N2670      O2681   1.262       .  A
N2672      O2678   1.261       .  A
N2672      O2679   1.259       .  A
C2682      C2687   1.403       .  A
C2682      H2692   1.083       .  S
C2683      C2688   1.484       .  S
C2683      C2684   1.408       .  A
C2684      C2685   1.400       .  A
C2684      N2689   1.430       .  S
C2685      C2686   1.409       .  A
C2685      H2690   1.084       .  S
C2687      N2691   1.429       .  S
C2688      C2697   1.403       .  A
N2689      O2704   1.262       .  A
N2689      O2705   1.262       .  A
N2691      O2702   1.261       .  A
N2691      O2703   1.262       .  A
C2693      C2694   1.404       .  A
C2693      N2698   1.429       .  S
C2694      H2699   1.077       .  S
C2695      C2696   1.414       .  A
C2696      C2697   1.402       .  A
C2696      N2700   1.429       .  S
C2697      H2701   1.079       .  S
N2698      O2708   1.262       .  A
N2698      O2709   1.262       .  A
N2700      O2706   1.262       .  A
N2700      O2707   1.262       .  A
C2710      C2711   1.401       .  A
C2710      C2715   1.404       .  A
C2711      C2716   1.479       .  S
C2711      C2712   1.407       .  A
C2712      C3132   1.400       .  A
C2712      N3136   1.430   1_565  S
C2713      C3131   1.405       .  A
C2713      C2714   1.409       .  A
C2713      H2718   1.083       .  S
C2714      C3134   1.415   1_554  A
C2715      C3133   1.413       .  A
C2716      C2721   1.407   1_565  A
C2716      C2725   1.401       .  A
N2717      C3131   1.428       .  S
N2717      O2732   1.262   1_565  A
N2717      O3152   1.262       .  A
N2719      O2730   1.262       .  A
N2719      O2731   1.262       .  A
C2721      C2722   1.402       .  A
C2721      N2726   1.430       .  S
C2722      C2723   1.409   1_545  A
C2722      H2727   1.073       .  S
C2723      C2724   1.414       .  A
C2724      C2725   1.399       .  A
C2724      N2728   1.429       .  S
C2725      H2729   1.078       .  S
N2726      O2736   1.262       .  A
N2726      O2737   1.262       .  A
O2733      N3136   1.262       .  A
C2738      C2739   1.405       .  A
C2738      C2743   1.402       .  A
C2738      H2748   1.083       .  S
C2739      C2744   1.484       .  S
C2740      C3160   1.403       .  A
C2740      N2745   1.429       .  S
C2741      C3159   1.402       .  A
C2741      H2746   1.079       .  S
C2742      C3162   1.411   1_554  A
C2743      C3161   1.411       .  A
C2743      N2747   1.429       .  S
C2744      C2749   1.407       .  A
C2744      C2753   1.406       .  A
N2745      O3179   1.262       .  A
N2745      O2761   1.261       .  A
N2747      O2758   1.262       .  A
N2747      O2759   1.262       .  A
C2749      C2750   1.395       .  A
C2749      N2754   1.429       .  S
C2750      C2751   1.407       .  A
C2750      H2755   1.082       .  S
C2751      C2752   1.412       .  A
C2752      C2753   1.406       .  A
C2752      N2756   1.429       .  S
C2753      H2757   1.081       .  S
N2754      O2764   1.262       .  A
N2754      O2765   1.262   1_565  A
N2756      O2762   1.262       .  A
N2756      O2763   1.262       .  A
O2760      N3164   1.262       .  A
C2766      C2767   1.402       .  A
C2766      C2771   1.404       .  A
C2766      H2776   1.078   1_565  S
C2767      C2772   1.483       .  S
C2767      C2768   1.406       .  A
C2768      C2769   1.400       .  A
C2768      N2773   1.428       .  S
C2769      C2770   1.410       .  A
C2769      H2774   1.078       .  S
C2770      C2771   1.417       .  A
C2771      N2775   1.428   1_565  S
C2772      C2777   1.409       .  A
C2772      C2781   1.400       .  A
N2773      O2788   1.261       .  A
N2773      O2789   1.262       .  A
N2775      O2786   1.262       .  A
N2775      O2787   1.260       .  A
C2777      C2778   1.402       .  A
C2777      N2782   1.430       .  S
C2778      C2779   1.408       .  A
C2778      H2783   1.082       .  S
C2779      C2780   1.419       .  A
C2780      C2781   1.404       .  A
N2782      O2792   1.262       .  A
N2782      O2793   1.262       .  A
N2784      O2790   1.262       .  A
N2784      O2791   1.262       .  A
C2794      C2795   1.404       .  A
C2794      C2799   1.403       .  A
C2794      H2804   1.083       .  S
C2795      C2800   1.485       .  S
C2795      C2796   1.411       .  A
C2796      C2797   1.403       .  A
C2796      N2801   1.430   1_565  S
C2797      C2798   1.403       .  A
C2797      H2802   1.084       .  S
C2798      C2799   1.409       .  A
C2799      N2803   1.429       .  S
C2800      C2805   1.411       .  A
C2800      C2809   1.399       .  A
N2801      O2816   1.262       .  A
N2801      O2817   1.262       .  A
N2803      O2814   1.262       .  A
N2803      O2815   1.262       .  A
C2805      C2806   1.405       .  A
C2806      C2807   1.407       .  A
C2807      C2808   1.418       .  A
C2808      C2809   1.398       .  A
C2808      N2812   1.429       .  S
C2809      H2813   1.086       .  S
N2810      O2820   1.262       .  A
N2810      O2821   1.262       .  A
N2812      O2818   1.262   1_565  A
N2812      O2819   1.262       .  A
C2822      C2823   1.405       .  A
C2822      C3246   1.408       .  A
C2822      H2832   1.080       .  S
C2823      C2828   1.491       .  S
C2823      C2824   1.409       .  A
C2824      C2825   1.400       .  A
C2824      N2829   1.429       .  S
C2825      C3245   1.406       .  A
C2825      H2830   1.080       .  S
C2826      C3244   1.401   1_554  A
C2826      C2827   1.410       .  A
C2827      C3241   1.403   1_554  A
C2827      N2831   1.428       .  S
C2828      C2833   1.410       .  A
C2828      C2837   1.402       .  A
N2829      O2844   1.262       .  A
N2829      O2845   1.262       .  A
N2831      O2842   1.262       .  A
N2831      O2843   1.262       .  A
C2833      C2834   1.407       .  A
C2833      N2838   1.428       .  S
C2834      C2835   1.408       .  A
C2834      H2839   1.080       .  S
C2835      C2836   1.416       .  A
C2836      C2837   1.401       .  A
C2836      N2840   1.430       .  S
C2837      H2841   1.080       .  S
N2838      O3267   1.262       .  A
N2838      O3268   1.262       .  A
N2840      O2846   1.262       .  A
N2840      O2847   1.262       .  A
O2848      N3257   1.262   1_554  A
O2849      N3257   1.261   1_554  A
C2850      C2851   1.402       .  A
C2850      C3274   1.404       .  A
C2850      H2860   1.080       .  S
C2851      C2856   1.483       .  S
C2851      C2852   1.407       .  A
C2852      C2853   1.397       .  A
C2852      N2857   1.429       .  S
C2853      C3273   1.409       .  A
C2853      H2858   1.080       .  S
C2854      C3272   1.402   1_554  A
C2854      C2855   1.411       .  A
C2855      C3269   1.401   1_554  A
C2855      N2859   1.429       .  S
C2856      C2861   1.408       .  A
C2856      C2865   1.401       .  A
N2857      O2872   1.262       .  A
N2857      O2873   1.262       .  A
N2859      O2870   1.262       .  A
N2859      O2871   1.262       .  A
C2861      C2862   1.402       .  A
C2861      N2866   1.429       .  S
C2862      C2863   1.408       .  A
C2862      H2867   1.076       .  S
C2863      C2864   1.419       .  A
C2864      C2865   1.400       .  A
C2864      N2868   1.430       .  S
C2865      H2869   1.076       .  S
N2866      O3295   1.261       .  A
N2866      O3296   1.262       .  A
N2868      O2874   1.261       .  A
N2868      O2875   1.262       .  A
O2876      N3285   1.261       .  A
O2877      N3285   1.262       .  A
C2878      C2879   1.404       .  A
C2878      C2883   1.395       .  A
C2878      H2888   1.083       .  S
C2879      C2884   1.481       .  S
C2879      C2880   1.411       .  A
C2880      C2881   1.399       .  A
C2880      N2885   1.429       .  S
C2881      C2882   1.404       .  A
C2881      H2886   1.083       .  S
C2882      C2883   1.408       .  A
C2883      N2887   1.429       .  S
C2884      C2889   1.411       .  A
C2884      C2893   1.403       .  A
N2885      O2900   1.262       .  A
N2885      O2901   1.261       .  A
N2887      O2898   1.262       .  A
N2887      O2899   1.262       .  A
C2889      C2890   1.391       .  A
C2889      N2894   1.430       .  S
C2890      C2891   1.402       .  A
C2890      H2895   1.088       .  S
C2891      C2892   1.413       .  A
C2892      C2893   1.402       .  A
C2892      N2896   1.429       .  S
C2893      H2897   1.087       .  S
N2894      O2904   1.262       .  A
N2894      O2905   1.262       .  A
N2896      O2902   1.262       .  A
N2896      O2903   1.262       .  A
C2906      C2907   1.399       .  A
C2906      C2911   1.401       .  A
C2906      H2916   1.084       .  S
C2907      C2912   1.479       .  S
C2907      C2908   1.409       .  A
C2908      C2909   1.401       .  A
C2908      N2913   1.430       .  S
C2909      C2910   1.404       .  A
C2909      H2914   1.084       .  S
C2910      C2911   1.411       .  A
C2911      N2915   1.428       .  S
C2912      C2917   1.406       .  A
C2912      C2921   1.402       .  A
N2913      O2928   1.262       .  A
N2913      O2929   1.262       .  A
N2915      O2926   1.261       .  A
N2915      O2927   1.262       .  A
C2917      C2918   1.398       .  A
C2917      N2922   1.430       .  S
C2918      C2919   1.408       .  A
C2918      H2923   1.071       .  S
C2919      C2920   1.416       .  A
C2920      C2921   1.405       .  A
C2920      N2924   1.429       .  S
C2921      H2925   1.077       .  S
N2922      O2932   1.262       .  A
N2922      O2933   1.262       .  A
N2924      O2930   1.262       .  A
N2924      O2931   1.262       .  A
C2934      N2935   1.366       .  A
C2934      N2939   1.358       .  A
C2934      C3338   1.480       .  S
N2935      C2936   1.366       .  A
C2936      N2937   1.355       .  A
C2936      C2942   1.473       .  S
N2937      C2938   1.353       .  A
C2938      N2939   1.353       .  A
C2938      C3301   1.474       .  S
C2940      N2941   1.362       .  A
C2940      N2945   1.360       .  A
C2940      C3273   1.493       .  S
N2941      C2942   1.361       .  A
C2942      N2943   1.363       .  A
N2943      C2944   1.357       .  A
C2944      N2945   1.356       .  A
C2944      C3245   1.492       .  S
C2946      N2947   1.362       .  A
C2946      N2951   1.359       .  A
C2946      C3198   1.495       .  S
N2947      C2948   1.361       .  A
C2948      N2949   1.361       .  A
C2948      C2956   1.473       .  S
N2949      C2950   1.356       .  A
C2950      N2951   1.355       .  A
C2950      C3217   1.476       .  S
C2952      N2953   1.360       .  A
C2952      N2957   1.364       .  A
C2952      C3133   1.483       .  S
N2953      C2954   1.356       .  A
C2954      N2955   1.355       .  A
C2954      C3161   1.479       .  S
N2955      C2956   1.357       .  A
C2956      N2957   1.364       .  A
C2958      N2959   1.364       .  A
C2958      N2963   1.361       .  A
C2958      C3114   1.498       .  S
N2959      C2960   1.360       .  A
C2960      N2961   1.352       .  A
C2960      C2968   1.464       .  S
N2961      C2962   1.350       .  A
C2962      N2963   1.359       .  A
C2962      C3077   1.478       .  S
C2964      N2965   1.360       .  A
C2964      N2969   1.360       .  A
C2964      C3058   1.487       .  S
N2965      C2966   1.355       .  A
C2966      N2967   1.353       .  A
C2966      C3030   1.476       .  S
N2967      C2968   1.358       .  A
C2968      N2969   1.358       .  A
O2970     Mn2996   2.090       .  S
C2971      C3282   1.491       .  S
C2971      O3004   1.271       .  A
C2971      O3001   1.273       .  A
O2972     Mn2979   2.167       .  S
O2972     Mn2990   2.116       .  S
O2972     Mn2994   2.169       .  S
O2973     Mn3007   2.082       .  S
O2973      C2983   1.267       .  A
O2974     Mn2990   2.094       .  S
O2974      C2997   1.274       .  A
O2975     Mn2994   2.107       .  S
O2975      C3002   1.252       .  A
O2976     Mn2996   1.983       .  S
O2976      C2992   1.225       .  S
C2977      C3226   1.489       .  S
C2977      O2980   1.253       .  A
C2977      O3003   1.216       .  S
O2978     Mn2979   2.173       .  S
O2978     Mn3012   2.117       .  S
O2978     Mn2994   2.170       .  S
Mn2979     O2984   2.111       .  S
O2981     Mn2988   2.108       .  S
O2981      C2983   1.275       .  A
C2982      C3170   1.483       .  S
C2982      O3008   1.252       .  A
C2982      O2995   1.223       .  S
C2983      C3329   1.483       .  S
O2984      C3009   1.253       .  A
O2985     Mn2988   2.122       .  S
O2985     Mn3007   2.127       .  S
O2986     Mn2990   1.959       .  S
O2986     Mn3012   1.953       .  S
O2986      C3009   1.215       .  S
C2987      C3105   1.499       .  S
C2987      O2989   1.270       .  A
Mn2988     O3001   2.093       .  S
O2989     Mn3012   2.082       .  S
Mn2990     O3006   2.090       .  S
Mn2990     O3000   1.957       .  S
O2991     Mn2996   2.104       .  S
C2992      C3086   1.476       .  S
C2992      O3010   1.252       .  A
C2993      C3142   1.493       .  S
C2993      O3006   1.272       .  A
O2995     Mn2998   1.974       .  S
Mn2996     O3014   1.935       .  S
C2997      C3189   1.483       .  S
Mn2998     O3005   2.093       .  S
Mn2998     O3013   2.112       .  S
Mn2998     O3003   1.946       .  S
C2999      C3049   1.494       .  S
C2999      O3015   1.275       .  A
O3000     Mn3012   1.961       .  S
O3000      C3002   1.218       .  S
C3002      C3310   1.480       .  S
O3004     Mn3007   2.094       .  S
C3009      C3254   1.487       .  S
O3011      C3016   1.255       .  A
Mn3012     O3015   2.106       .  S
O3014      C3016   1.213       .  S
C3016      C3021   1.488       .  S
C3017      C3022   1.392       .  A
C3017      H3027   1.083       .  S
C3018      C3023   1.474       .  S
C3018      C3019   1.407       .  A
C3019      C3020   1.406       .  A
C3019      N3024   1.428       .  S
C3020      C3021   1.408       .  A
C3020      H3025   1.081       .  S
C3022      N3026   1.423       .  S
C3023      C3032   1.400       .  A
N3024      O3039   1.262       .  A
N3024      O3040   1.261   1_556  A
N3026      O3037   1.261       .  A
N3026      O3038   1.262       .  A
C3029      H3034   1.081       .  S
C3031      C3032   1.397       .  A
C3031      N3035   1.429       .  S
C3032      H3036   1.082       .  S
N3033      O3043   1.262       .  A
N3035      O3041   1.262       .  A
N3035      O3042   1.262       .  A
C3045      C3046   1.398   1_455  A
C3045      C3050   1.400       .  A
C3045      H3055   1.085       .  S
C3046      C3051   1.479       .  S
C3046      C3047   1.406       .  A
C3047      C3048   1.402       .  A
C3047      N3052   1.429       .  S
C3048      C3049   1.409       .  A
C3048      H3053   1.085       .  S
C3049      C3050   1.422   1_655  A
C3050      N3054   1.430       .  S
C3051      C3056   1.403       .  A
C3051      C3060   1.402       .  A
N3054      O3065   1.262       .  A
N3054      O3066   1.262       .  A
C3056      C3057   1.395       .  A
C3056      N3061   1.429       .  S
C3057      H3062   1.081       .  S
C3058      C3059   1.418       .  A
N3061      O3071   1.262   1_655  A
N3061      O3072   1.262       .  A
N3063      O3069   1.262       .  A
N3063      O3070   1.262       .  A
C3073      C3078   1.405       .  A
C3073      H3083   1.076       .  S
C3074      C3079   1.470       .  S
C3074      C3075   1.405       .  A
C3075      C3076   1.397       .  A
C3075      N3080   1.428       .  S
C3076      C3077   1.403       .  A
C3076      H3081   1.078       .  S
C3078      N3082   1.429       .  S
C3079      C3084   1.405       .  A
C3079      C3088   1.397       .  A
N3080      O3095   1.262       .  A
N3080      O3096   1.262       .  A
N3082      O3093   1.262       .  A
N3082      O3094   1.262       .  A
C3084      C3085   1.402       .  A
C3084      N3089   1.428       .  S
C3085      C3086   1.408       .  A
C3085      H3090   1.082       .  S
C3086      C3087   1.410   1_655  A
C3087      C3088   1.393   1_455  A
C3087      N3091   1.426       .  S
C3088      H3092   1.083   1_655  S
N3089      O3099   1.262       .  A
N3089      O3100   1.262       .  A
N3091      O3097   1.261       .  A
N3091      O3098   1.260       .  A
C3101      C3106   1.403       .  A
C3101      H3111   1.083       .  S
C3102      C3107   1.481       .  S
C3102      C3103   1.404       .  A
C3103      C3104   1.400       .  A
C3103      N3108   1.429       .  S
C3104      C3105   1.413       .  A
C3104      H3109   1.086       .  S
C3106      N3110   1.430       .  S
C3107      C3116   1.399       .  A
N3108      O3123   1.262       .  A
N3108      O3124   1.262       .  A
N3110      O3121   1.262       .  A
N3110      O3122   1.262       .  A
C3112      C3113   1.406       .  A
C3112      N3117   1.429       .  S
C3113      H3118   1.077       .  S
C3114      C3115   1.421       .  A
C3115      C3116   1.401       .  A
C3115      N3119   1.429       .  S
C3116      H3120   1.080       .  S
N3117      O3127   1.262       .  A
N3117      O3128   1.262       .  A
N3119      O3125   1.262       .  A
N3119      O3126   1.262       .  A
C3129      C3130   1.399       .  A
C3129      C3134   1.399       .  A
C3130      C3135   1.483       .  S
C3130      C3131   1.408   1_556  A
C3132      C3133   1.406       .  A
C3132      H3137   1.084   1_565  S
C3135      C3140   1.407       .  A
C3135      C3144   1.400   1_565  A
N3136      O3151   1.262   1_545  A
N3138      O3149   1.262       .  A
N3138      O3150   1.262       .  A
C3140      C3141   1.399       .  A
C3140      N3145   1.427       .  S
C3141      C3142   1.408       .  A
C3141      H3146   1.080       .  S
C3142      C3143   1.419   1_565  A
C3143      C3144   1.404       .  A
C3143      N3147   1.429       .  S
C3144      H3148   1.079       .  S
N3145      O3155   1.261       .  A
N3145      O3156   1.261       .  A
C3157      C3158   1.401       .  A
C3157      C3162   1.398       .  A
C3157      H3167   1.082       .  S
C3158      C3163   1.483       .  S
C3159      N3164   1.429       .  S
C3160      H3165   1.080       .  S
C3162      N3166   1.432       .  S
C3163      C3168   1.409       .  A
C3163      C3172   1.405       .  A
N3164      O3180   1.261       .  A
N3166      O3177   1.263       .  A
N3166      O3178   1.262       .  A
C3168      C3169   1.393       .  A
C3168      N3173   1.430   1_565  S
C3169      C3170   1.404       .  A
C3169      H3174   1.080       .  S
C3170      C3171   1.415       .  A
C3171      C3172   1.406       .  A
C3171      N3175   1.429       .  S
C3172      H3176   1.079       .  S
N3173      O3183   1.262   1_545  A
N3173      O3184   1.262       .  A
N3175      O3181   1.262       .  A
N3175      O3182   1.262       .  A
C3185      C3186   1.402   1_545  A
C3185      C3190   1.400       .  A
C3185      H3195   1.084       .  S
C3186      C3191   1.486       .  S
C3186      C3187   1.410       .  A
C3187      C3188   1.399       .  A
C3187      N3192   1.426       .  S
C3188      C3189   1.404       .  A
C3188      H3193   1.084       .  S
C3189      C3190   1.415   1_565  A
C3190      N3194   1.429       .  S
C3191      C3196   1.409       .  A
C3191      C3200   1.402       .  A
N3192      O3207   1.261       .  A
N3192      O3208   1.262       .  A
N3194      O3205   1.262       .  A
N3194      O3206   1.262       .  A
C3196      C3197   1.399       .  A
C3196      N3201   1.430       .  S
C3197      C3198   1.409       .  A
C3197      H3202   1.083       .  S
C3198      C3199   1.416       .  A
C3199      C3200   1.401       .  A
N3201      O3211   1.262   1_565  A
N3201      O3212   1.262       .  A
N3203      O3209   1.262       .  A
N3203      O3210   1.262       .  A
C3213      C3214   1.405       .  A
C3213      C3218   1.404       .  A
C3213      H3223   1.080       .  S
C3214      C3219   1.488       .  S
C3214      C3215   1.412       .  A
C3215      C3216   1.399       .  A
C3215      N3220   1.429   1_565  S
C3216      C3217   1.401       .  A
C3216      H3221   1.081   1_565  S
C3217      C3218   1.409       .  A
C3218      N3222   1.428       .  S
C3219      C3224   1.411       .  A
C3219      C3228   1.403       .  A
N3220      O3235   1.262       .  A
N3220      O3236   1.262       .  A
N3222      O3233   1.262       .  A
N3222      O3234   1.262       .  A
C3224      C3225   1.405       .  A
C3225      C3226   1.407       .  A
C3226      C3227   1.417       .  A
C3227      C3228   1.398       .  A
C3227      N3231   1.430       .  S
C3228      H3232   1.079       .  S
N3229      O3239   1.262       .  A
N3229      O3240   1.262       .  A
N3231      O3237   1.262   1_565  A
N3231      O3238   1.262       .  A
C3241      C3242   1.406       .  A
C3241      H3251   1.077   1_556  S
C3242      C3247   1.490       .  S
C3242      C3243   1.416       .  A
C3243      C3244   1.398       .  A
C3243      N3248   1.430       .  S
C3244      H3249   1.080       .  S
C3245      C3246   1.416       .  A
C3246      N3250   1.429       .  S
C3247      C3252   1.414       .  A
C3247      C3256   1.401       .  A
N3248      O3263   1.262       .  A
N3248      O3264   1.261       .  A
N3250      O3261   1.262       .  A
N3250      O3262   1.262       .  A
C3252      C3253   1.405       .  A
C3252      N3257   1.429       .  S
C3253      C3254   1.405       .  A
C3253      H3258   1.077       .  S
C3254      C3255   1.417       .  A
C3255      C3256   1.396       .  A
C3255      N3259   1.430       .  S
C3256      H3260   1.074       .  S
N3259      O3265   1.262       .  A
N3259      O3266   1.262       .  A
C3269      C3270   1.403       .  A
C3269      H3279   1.081   1_556  S
C3270      C3275   1.479       .  S
C3270      C3271   1.410       .  A
C3271      C3272   1.396       .  A
C3271      N3276   1.430       .  S
C3272      H3277   1.082       .  S
C3273      C3274   1.417       .  A
C3274      N3278   1.428       .  S
C3275      C3280   1.407       .  A
C3275      C3284   1.397       .  A
N3276      O3291   1.262       .  A
N3276      O3292   1.262       .  A
N3278      O3289   1.262       .  A
N3278      O3290   1.261       .  A
C3280      C3281   1.400       .  A
C3280      N3285   1.429       .  S
C3281      C3282   1.410       .  A
C3281      H3286   1.080       .  S
C3282      C3283   1.417       .  A
C3283      C3284   1.397       .  A
C3283      N3287   1.424       .  S
C3284      H3288   1.080       .  S
N3287      O3293   1.261       .  A
N3287      O3294   1.261       .  A
C3297      C3298   1.405       .  A
C3297      C3302   1.399       .  A
C3297      H3307   1.080       .  S
C3298      C3303   1.482       .  S
C3298      C3299   1.410       .  A
C3299      C3300   1.396       .  A
C3299      N3304   1.428       .  S
C3300      C3301   1.402       .  A
C3300      H3305   1.081       .  S
C3301      C3302   1.410       .  A
C3302      N3306   1.429       .  S
C3303      C3308   1.409       .  A
C3303      C3312   1.405       .  A
N3304      O3319   1.262       .  A
N3304      O3320   1.261       .  A
N3306      O3317   1.262       .  A
N3306      O3318   1.262       .  A
C3308      C3309   1.393       .  A
C3308      N3313   1.430       .  S
C3309      C3310   1.405       .  A
C3309      H3314   1.079       .  S
C3310      C3311   1.412       .  A
C3311      C3312   1.404       .  A
C3311      N3315   1.428       .  S
C3312      H3316   1.078       .  S
N3313      O3323   1.262       .  A
N3313      O3324   1.262       .  A
N3315      O3321   1.262       .  A
N3315      O3322   1.262       .  A
C3325      C3326   1.397       .  A
C3325      C3330   1.399       .  A
C3325      H3335   1.083       .  S
C3326      C3331   1.477       .  S
C3326      C3327   1.408       .  A
C3327      C3328   1.403       .  A
C3327      N3332   1.429       .  S
C3328      C3329   1.407       .  A
C3328      H3333   1.082       .  S
C3329      C3330   1.408       .  A
C3330      N3334   1.422       .  S
C3331      C3336   1.405       .  A
C3331      C3340   1.403       .  A
N3332      O3347   1.262       .  A
N3332      O3348   1.262       .  A
N3334      O3345   1.260       .  A
N3334      O3346   1.261       .  A
C3336      C3337   1.397       .  A
C3336      N3341   1.429       .  S
C3337      C3338   1.405       .  A
C3337      H3342   1.080       .  S
C3338      C3339   1.413       .  A
C3339      C3340   1.406       .  A
C3339      N3343   1.429       .  S
C3340      H3344   1.080       .  S
N3341      O3351   1.262       .  A
N3341      O3352   1.262       .  A
N3343      O3349   1.261       .  A
N3343      O3350   1.262       .  A
