geometry optimzed in LAMMPS
_audit_creation_date              2020-11-30 
_audit_creation_method            'lammps2cif' 
_symmetry_space_group_name_H-M    'P1' 
_symmetry_Int_Tables_number       1 
_symmetry_cell_setting            triclinic 
loop_ 
_symmetry_equiv_pos_as_xyz 
  x,y,z 
_cell_length_a                    37.713004874576235 
_cell_length_b                    37.716644646164255 
_cell_length_c                    34.1238049484101 
_cell_angle_alpha                 89.6072775364693 
_cell_angle_beta                  90.22634209439441 
_cell_angle_gamma                 119.60250057678219 
loop_ 
_atom_site_label 
_atom_site_type_symbol 
_atom_site_fract_x 
_atom_site_fract_y 
_atom_site_fract_z 
_atom_site_charge 
C1          C  0.20939983  0.21211322  0.15427255     0.02580
C2          C  0.20985129  0.21072714  0.11323110    -0.13570
C3          C  0.24476562  0.23840594  0.09160678     0.00080
C4          C  0.27837974  0.26886150  0.11263224    -0.12100
C5          C  0.27587086  0.27437927  0.15284398     0.02570
C6          C  0.24134464  0.24542990  0.17333478    -0.11520
H7          H  0.18289634  0.18743823  0.09898318     0.08160
H8          H  0.30719813  0.28818371  0.09848477     0.05690
H9          H  0.23999526  0.24801159  0.20480717     0.05540
C10         C  0.22114747  0.19698457  0.48660981     0.02580
C11         C  0.21860943  0.19959288  0.02734738    -0.13570
C12         C  0.24712564  0.23485725  0.04784583     0.00080
C13         C  0.27813501  0.26716782  0.02578430    -0.12100
C14         C  0.28362138  0.26278982  0.48589543     0.02570
C15         C  0.25488580  0.22743664  0.46668870    -0.11520
H16         H  0.19398202  0.17391791  0.04209630     0.08160
H17         H  0.29797496  0.29639224  0.03886405     0.05690
H18         H  0.25775101  0.22432351  0.43547817     0.05540
C19         C  0.24494484  0.47385409  0.15689706     0.02580
C20         C  0.24851742  0.47972536  0.11620565    -0.13570
C21         C  0.21466612  0.47372044  0.09320756     0.00080
C22         C  0.17720697  0.46105180  0.11272998    -0.12100
C23         C  0.17453376  0.45890807  0.15386489     0.02570
C24         C  0.20906255  0.46625309  0.17557105    -0.11520
H25         H  0.27796770  0.48917590  0.10330312     0.08160
H26         H  0.14970837  0.45301777  0.09646060     0.05690
H27         H  0.20836399  0.46617334  0.20728378     0.05540
C28         C  0.25615775  0.49228845  0.48808655     0.02580
C29         C  0.25127192  0.48288351  0.02824027    -0.13570
C30         C  0.21855790  0.48159981  0.04958092     0.00080
C31         C  0.18937719  0.48754582  0.02853506    -0.12100
C32         C  0.19289696  0.49477207  0.48793548     0.02570
C33         C  0.22733900  0.49883019  0.46848504    -0.11520
H34         H  0.27290010  0.47590678  0.04209480     0.08160
H35         H  0.16305042  0.48552619  0.04290434     0.05690
H36         H  0.23028197  0.50429362  0.43711244     0.05540
C37         C  0.99524752  0.24416488  0.15382003     0.02580
C38         C  0.99256296  0.24276269  0.11268570    -0.13570
C39         C  0.98391674  0.20681085  0.09229083     0.00080
C40         C  0.97693347  0.17220393  0.11444497    -0.12100
C41         C  0.98135012  0.17399456  0.15525010     0.02570
C42         C  0.99114996  0.21022684  0.17447298    -0.11520
H43         H  0.99766620  0.26993464  0.09711994     0.08160
H44         H  0.96751578  0.14329729  0.10037394     0.05690
H45         H  0.99446045  0.21166347  0.20603275     0.05540
C46         C  0.47152854  0.22887509  0.48475126     0.02580
C47         C  0.47324151  0.23111537  0.02586977    -0.13570
C48         C  0.48199160  0.20477816  0.04835014     0.00080
C49         C  0.48916552  0.17621022  0.02836985    -0.12100
C50         C  0.48583720  0.17255578  0.48753718     0.02570
C51         C  0.47698760  0.19899148  0.46602400    -0.11520
H52         H  0.46729857  0.25327094  0.03987570     0.08160
H53         H  0.49808862  0.15689826  0.04413559     0.05690
H54         H  0.47497578  0.19672786  0.43438240     0.05540
O55         O  0.01094837  0.38003807  0.36879264    -0.88730
C56         C  0.09891718  0.08887603  0.26370049     1.11310
O57         O  0.47983541  0.42767993  0.31983361    -1.36540
O58         O  0.10754136  0.05896084  0.35933421    -0.90210
O59         O  0.44399703  0.34238686  0.35814563    -0.90880
O60         O  0.43790149  0.42468051  0.40347206    -0.79700
O61         O  0.06008724  0.47017599  0.35573898    -1.01790
C62         C  0.48223568  0.04371019  0.39440267     1.21350
O63         O  0.43857182  0.47192073  0.32157594    -1.36680
Mn64       Mn  0.47992657  0.47115165  0.27784765     1.82050
O65         O  0.48106737  0.01122779  0.40487640    -0.78780
O66         O  0.07281987  0.09188493  0.36732976    -0.88170
C67         C  0.48213679  0.04720047  0.25054427     1.12440
C68         C  0.10215718  0.08570671  0.37615736     1.07160
O69         O  0.43547297  0.43031907  0.23688122    -0.79720
O70         O  0.02319559  0.01210027  0.32058540    -1.33410
O71         O  0.40030401  0.39473511  0.28397306    -0.98930
C72         C  0.36511521  0.47502311  0.38055903     1.05880
Mn73       Mn  0.02803940  0.07035763  0.32306119     1.48570
O74         O  0.35800418  0.43992931  0.36910942    -0.88120
Mn75       Mn  0.42567883  0.37115279  0.31686840     1.49560
O76         O  0.01341811  0.37672198  0.28147013    -0.92000
C77         C  0.05668636  0.47190067  0.39089217     1.19070
C78         C  0.48178673  0.35344661  0.26212875     1.11130
Mn79       Mn  0.48065052  0.46939221  0.36367074     1.80970
O80         O  0.48270609  0.05252647  0.28578472    -0.97150
Mn81       Mn  0.03318327  0.42275914  0.32217588     1.49260
C82         C  0.47607913  0.34975596  0.37683597     1.07650
Mn83       Mn  0.43695265  0.02720224  0.32214725     1.49930
C84         C  0.36219388  0.47543993  0.26738905     1.10550
O85         O  0.40189605  0.39145353  0.35554378    -1.02960
O86         O  0.07251129  0.09515165  0.28022939    -0.92620
C87         C  0.40651159  0.39389135  0.39067864     1.21840
O88         O  0.48232665  0.05013074  0.35937465    -1.03340
O89         O  0.10355423  0.05832001  0.27185801    -0.90740
O90         O  0.39255439  0.50881829  0.27831213    -0.90350
O91         O  0.44699433  0.34972578  0.26971838    -0.90370
Mn92       Mn  0.08031141  0.01404896  0.31719751     1.47860
O93         O  0.48135894  0.01537353  0.23892407    -0.78850
C94         C  0.40385014  0.39935686  0.24891577     1.14890
O95         O  0.02456748  0.47015862  0.40318579    -0.77580
O96         O  0.02087132  0.46879559  0.23733017    -0.77190
Mn97       Mn  0.38050680  0.41914959  0.32252164     1.51060
O98         O  0.39266976  0.50781480  0.36524757    -0.89550
O99         O  0.05830199  0.46637489  0.28254635    -0.97070
O100        O  0.35460864  0.44101205  0.28125382    -0.92090
C101        C  0.05073100  0.46483233  0.24759346     1.12680
C102        C  0.48577522  0.07535678  0.42215842    -0.06670
C103        C  0.01041184  0.11620618  0.41044933    -0.17800
C104        C  0.01404697  0.14843769  0.43307988     0.10520
C105        C  0.49016026  0.14016491  0.46720026    -0.06600
C106        C  0.46690531  0.09948878  0.48011815    -0.17840
C107        C  0.46476148  0.06705015  0.45829763     0.10550
S108        S  0.05069164  0.19933781  0.41727469    -0.32800
S109        S  0.43321560  0.01632295  0.47761229    -0.32810
H110        H  0.41924669  0.49724346  0.44139549     0.28560
H111        H  0.05942331  0.21619790  0.45509272     0.28560
H112        H  0.02751049  0.12332151  0.38335800     0.19150
H113        H  0.44879210  0.09274322  0.50654585     0.19160
C114        C  0.46741937  0.25971597  0.46081378    -0.06670
C115        C  0.99502788  0.30115560  0.46727172    -0.17800
C116        C  0.99688430  0.33141553  0.44197423     0.10520
C117        C  0.47210906  0.32023913  0.40803377    -0.06630
C118        C  0.44276218  0.27892919  0.40301422    -0.17840
C119        C  0.43957876  0.24885690  0.42930538     0.10550
S120        S  0.02992101  0.38347804  0.45593648    -0.32800
S121        S  0.39905330  0.19735461  0.42118255    -0.32810
H122        H  0.39485069  0.18511067  0.46071036     0.28560
H123        H  0.00340714  0.39713438  0.44245963     0.28560
H124        H  0.01583284  0.31004864  0.49193138     0.19150
H125        H  0.42238649  0.26973957  0.37800759     0.19160
C126        C  0.47737296  0.13847647  0.17781820    -0.06670
C127        C  0.99906522  0.11935246  0.16502542    -0.17800
C128        C  0.99984723  0.08839474  0.18709618     0.10520
C129        C  0.47961768  0.07678847  0.22354219    -0.06600
C130        C  0.45759783  0.09571129  0.23608588    -0.17840
C131        C  0.45523655  0.12534146  0.21329040     0.10550
S132        S  0.03023434  0.06776170  0.16884982    -0.32800
S133        S  0.42284295  0.14448934  0.23088007    -0.32810
H134        H  0.41101284  0.15065257  0.19344378     0.28560
H135        H  0.99670035  0.02803818  0.16644301     0.28560
H136        H  0.01656679  0.12941013  0.13811974     0.19150
H137        H  0.44170381  0.08713253  0.26389180     0.19160
C138        C  0.48724661  0.32934907  0.23065723    -0.06670
C139        C  0.01861049  0.31963574  0.23555575    -0.17800
C140        C  0.02491696  0.29570549  0.20850164     0.10520
C141        C  0.49806568  0.27894529  0.17639581    -0.06600
C142        C  0.46863388  0.29081399  0.16983144    -0.17840
C143        C  0.46384475  0.31672877  0.19586310     0.10550
S144        S  0.06759828  0.28742337  0.21677277    -0.32800
S145        S  0.42918991  0.33413034  0.18161624    -0.32810
H146        H  0.45371110  0.37379454  0.19617019     0.28560
H147        H  0.07281481  0.28093899  0.17717003     0.28560
H148        H  0.03838152  0.33043052  0.26098649     0.19150
H149        H  0.44850843  0.27903112  0.14471893     0.19160
C150        C  0.28855775  0.49069848  0.46501553    -0.06670
C151        C  0.29039703  0.45450100  0.46520272    -0.17800
C152        C  0.31640125  0.44906926  0.43985441     0.10520
C153        C  0.33992556  0.47956129  0.41185361    -0.06600
C154        C  0.33917951  0.01658546  0.41316433    -0.17840
C155        C  0.31466099  0.02273434  0.43975073     0.10550
S156        S  0.31943497  0.40363495  0.44682219    -0.32800
S157        S  0.31829406  0.07227142  0.44006715    -0.32810
H158        H  0.30770444  0.07098727  0.47973387     0.28560
H159        H  0.36210863  0.42401598  0.44304413     0.28560
H160        H  0.27103966  0.42998332  0.48505293     0.19150
H161        H  0.35762413  0.04118447  0.39303839     0.19160
C162        C  0.09021789  0.47652382  0.41692645    -0.06670
C163        C  0.10080388  0.00203601  0.44983434    -0.17800
C164        C  0.13510986  0.01039707  0.47277052     0.10520
C165        C  0.15789825  0.49076901  0.46414712    -0.06600
C166        C  0.14643518  0.46458976  0.43182470    -0.17840
C167        C  0.11416755  0.45836600  0.40745167     0.10550
S168        S  0.14952546  0.04821738  0.51061630    -0.32800
S169        S  0.10379351  0.42598568  0.36509406    -0.32810
H170        H  0.13838888  0.42113671  0.36764717     0.28560
H171        H  0.19165109  0.06243856  0.50803499     0.28560
H172        H  0.08358922  0.01727850  0.45644343     0.19150
H173        H  0.16296301  0.44859540  0.42564021     0.19160
C174        C  0.33393023  0.47655630  0.23753882    -0.06670
C175        C  0.31131865  0.44217537  0.21384813    -0.17800
C176        C  0.28314746  0.44107804  0.18634060     0.10520
C177        C  0.27848469  0.47570231  0.18087829    -0.06600
C178        C  0.30106384  0.01009092  0.20420634    -0.17840
C179        C  0.32741662  0.01033721  0.23330818     0.10550
S180        S  0.25083597  0.39318093  0.16243610    -0.32800
S181        S  0.34699039  0.05211170  0.26732503    -0.32810
H182        H  0.33908041  0.02735484  0.30084178     0.28560
H183        H  0.24881057  0.40995201  0.12624161     0.28560
H184        H  0.31471877  0.41544430  0.21747621     0.19150
H185        H  0.29577058  0.03577233  0.20168186     0.19160
C186        C  0.13709980  0.45300065  0.17435291    -0.06670
C187        C  0.11715061  0.97361653  0.16004369    -0.17800
C188        C  0.08599549  0.97457727  0.18130750     0.10520
C189        C  0.07664051  0.45779370  0.21948355    -0.06600
C190        C  0.09510022  0.43540705  0.23282993    -0.17840
C191        C  0.12329680  0.43099690  0.20999669     0.10550
S192        S  0.06111526  0.99933638  0.15859992    -0.32800
S193        S  0.13926859  0.39589197  0.22772674    -0.32810
H194        H  0.14707400  0.38573877  0.19036226     0.28560
H195        H  0.02182782  0.96575427  0.16410919     0.28560
H196        H  0.12652285  0.99016975  0.13251850     0.19150
H197        H  0.08745659  0.42092462  0.26140601     0.19160
C198        C  0.31657072  0.29662458  0.46278521    -0.06670
C199        C  0.30565135  0.30644564  0.42676684    -0.17800
C200        C  0.33421066  0.33711759  0.40260034     0.10520
C201        C  0.37520569  0.36106108  0.41570294    -0.06600
C202        C  0.38626416  0.35185410  0.45212018    -0.17840
C203        C  0.35779168  0.31920618  0.47519221     0.10550
S204        S  0.31599818  0.34650822  0.35654875    -0.32800
S205        S  0.37672244  0.30652994  0.01859743    -0.32810
H206        H  0.35015923  0.26422590  0.01613525     0.28560
H207        H  0.27549328  0.31439310  0.35856610     0.28560
H208        H  0.27405957  0.29018002  0.41765243     0.19150
H209        H  0.41767125  0.36899441  0.46184826     0.19160
C210        C  0.13181430  0.11096782  0.40698162    -0.06670
C211        C  0.12004409  0.13032323  0.43501274    -0.17800
C212        C  0.14783653  0.15715324  0.46258072     0.10520
C213        C  0.18820184  0.16377341  0.46348535    -0.06600
C214        C  0.19912717  0.14234191  0.43734094    -0.17840
C215        C  0.17211909  0.11707767  0.40868266     0.10550
S216        S  0.13047490  0.18390856  0.99376393    -0.32800
S217        S  0.19294393  0.09702653  0.37330880    -0.32810
H218        H  0.17989768  0.11084884  0.34082484     0.28560
H219        H  0.16630488  0.22190121  0.99051291     0.28560
H220        H  0.08936665  0.12579864  0.43457302     0.19150
H221        H  0.23004317  0.14741698  0.43766108     0.19160
C222        C  0.37259525  0.36753708  0.22312443    -0.06670
C223        C  0.36433450  0.37804999  0.18596918    -0.17800
C224        C  0.33282397  0.34898027  0.16230693     0.10520
C225        C  0.31053088  0.30765005  0.17494255    -0.06600
C226        C  0.32061411  0.29716317  0.21105162    -0.17840
C227        C  0.34953607  0.32628202  0.23587377     0.10550
S228        S  0.32170379  0.36737181  0.11761297    -0.32800
S229        S  0.35649487  0.30830225  0.28301990    -0.32810
H230        H  0.31771709  0.27325920  0.28518390     0.28560
H231        H  0.27932958  0.34093251  0.11910862     0.28560
H232        H  0.38117167  0.40948350  0.17612268     0.19150
H233        H  0.30544137  0.26552241  0.22025012     0.19160
C234        C  0.17681228  0.17871854  0.17834397    -0.06670
C235        C  0.16127422  0.18983669  0.21037458    -0.17800
C236        C  0.13764751  0.16161108  0.23908175     0.10520
C237        C  0.12587422  0.11987766  0.23461844    -0.06600
C238        C  0.13976617  0.10811346  0.20177223    -0.17840
C239        C  0.16544230  0.13700531  0.17381511     0.10550
S240        S  0.12730210  0.18203625  0.28255608    -0.32800
S241        S  0.18560105  0.12025795  0.13451600    -0.32810
H242        H  0.16102573  0.07808283  0.14110313     0.28560
H243        H  0.13549627  0.15796530  0.30876548     0.28560
H244        H  0.16972211  0.22152358  0.21442406     0.19150
H245        H  0.13112302  0.07633362  0.19850077     0.19160
C246        C  0.20939995  0.21211313  0.65427257     0.02580
C247        C  0.20985144  0.21072697  0.61323112    -0.13570
C248        C  0.24476572  0.23840585  0.59160679     0.00080
C249        C  0.27837980  0.26886148  0.61263223    -0.12100
C250        C  0.27587090  0.27437927  0.65284397     0.02570
C251        C  0.24134469  0.24542988  0.67333478    -0.11520
H252        H  0.18289653  0.18743795  0.59898324     0.08160
H253        H  0.30719818  0.28818373  0.59848477     0.05690
H254        H  0.23999526  0.24801160  0.70480716     0.05540
C255        C  0.22114742  0.19698461  0.98660984     0.02580
C256        C  0.21860949  0.19959281  0.52734736    -0.13570
C257        C  0.24712573  0.23485717  0.54784583     0.00080
C258        C  0.27813510  0.26716774  0.52578429    -0.12100
C259        C  0.28362132  0.26278988  0.98589545     0.02570
C260        C  0.25488575  0.22743669  0.96668873    -0.11520
H261        H  0.19398205  0.17391785  0.54209626     0.08160
H262        H  0.29797505  0.29639215  0.53886404     0.05690
H263        H  0.25775097  0.22432356  0.93547820     0.05540
C264        C  0.24494486  0.47385414  0.65689707     0.02580
C265        C  0.24851744  0.47972539  0.61620566    -0.13570
C266        C  0.21466614  0.47372047  0.59320757     0.00080
C267        C  0.17720698  0.46105182  0.61272999    -0.12100
C268        C  0.17453378  0.45890809  0.65386490     0.02570
C269        C  0.20906257  0.46625312  0.67557106    -0.11520
H270        H  0.27796772  0.48917594  0.60330313     0.08160
H271        H  0.14970838  0.45301778  0.59646061     0.05690
H272        H  0.20836401  0.46617337  0.70728379     0.05540
C273        C  0.25615775  0.49228846  0.98808655     0.02580
C274        C  0.25127193  0.48288352  0.52824028    -0.13570
C275        C  0.21855791  0.48159983  0.54958093     0.00080
C276        C  0.18937720  0.48754583  0.52853506    -0.12100
C277        C  0.19289696  0.49477208  0.98793547     0.02570
C278        C  0.22733900  0.49883020  0.96848503    -0.11520
H279        H  0.27290011  0.47590679  0.54209481     0.08160
H280        H  0.16305043  0.48552620  0.54290435     0.05690
H281        H  0.23028197  0.50429363  0.93711243     0.05540
C282        C  0.99524753  0.24416488  0.65382004     0.02580
C283        C  0.99256300  0.24276270  0.61268571    -0.13570
C284        C  0.98391680  0.20681088  0.59229083     0.00080
C285        C  0.97693355  0.17220396  0.61444497    -0.12100
C286        C  0.98135016  0.17399457  0.65525010     0.02570
C287        C  0.99114994  0.21022683  0.67447299    -0.11520
H288        H  0.99766625  0.26993466  0.59711995     0.08160
H289        H  0.96751590  0.14329732  0.60037394     0.05690
H290        H  0.99446039  0.21166344  0.70603276     0.05540
C291        C  0.47152849  0.22887506  0.98475127     0.02580
C292        C  0.47324157  0.23111540  0.52586977    -0.13570
C293        C  0.48199166  0.20477819  0.54835013     0.00080
C294        C  0.48916557  0.17621025  0.52836984    -0.12100
C295        C  0.48583716  0.17255577  0.98753719     0.02570
C296        C  0.47698757  0.19899146  0.96602400    -0.11520
H297        H  0.46729863  0.25327097  0.53987570     0.08160
H298        H  0.49808868  0.15689828  0.54413557     0.05690
H299        H  0.47497576  0.19672785  0.93438241     0.05540
O300        O  0.01094836  0.38003807  0.86879265    -0.88730
C301        C  0.09891722  0.08887603  0.76370052     1.11310
O302        O  0.47983542  0.42767993  0.81983363    -1.36540
O303        O  0.10754136  0.05896083  0.85933428    -0.90210
O304        O  0.44399701  0.34238685  0.85814563    -0.90880
O305        O  0.43790149  0.42468051  0.90347207    -0.79700
O306        O  0.06008723  0.47017599  0.85573899    -1.01790
C307        C  0.48223570  0.04371021  0.89440269     1.21350
O308        O  0.43857184  0.47192074  0.82157594    -1.36680
Mn309      Mn  0.47992660  0.47115166  0.77784767     1.82050
O310        O  0.48106738  0.01122780  0.90487641    -0.78780
O311        O  0.07281988  0.09188495  0.86732976    -0.88170
C312        C  0.48213682  0.04720049  0.75054428     1.12440
C313        C  0.10215718  0.08570672  0.87615739     1.07160
O314        O  0.43547300  0.43031909  0.73688122    -0.79720
O315        O  0.02319560  0.01210028  0.82058542    -1.33410
O316        O  0.40030403  0.39473513  0.78397306    -0.98930
C317        C  0.36511523  0.47502312  0.88055904     1.05880
Mn318      Mn  0.02803942  0.07035763  0.82306119     1.48570
O319        O  0.35800419  0.43992933  0.86910942    -0.88120
Mn320      Mn  0.42567883  0.37115280  0.81686840     1.49560
O321        O  0.01341812  0.37672198  0.78147014    -0.92000
C322        C  0.05668635  0.47190067  0.89089218     1.19070
C323        C  0.48178675  0.35344663  0.76212875     1.11130
Mn324      Mn  0.48065052  0.46939222  0.86367076     1.80970
O325        O  0.48270610  0.05252649  0.78578473    -0.97150
Mn326      Mn  0.03318327  0.42275914  0.82217589     1.49260
C327        C  0.47607911  0.34975594  0.87683597     1.07650
Mn328      Mn  0.43695267  0.02720226  0.82214726     1.49930
C329        C  0.36219390  0.47543994  0.76738906     1.10550
O330        O  0.40189605  0.39145354  0.85554378    -1.02960
O331        O  0.07251130  0.09515163  0.78022938    -0.92620
C332        C  0.40651158  0.39389135  0.89067865     1.21840
O333        O  0.48232667  0.05013076  0.85937466    -1.03340
O334        O  0.10355428  0.05832003  0.77185808    -0.90740
O335        O  0.39255440  0.50881831  0.77831215    -0.90350
O336        O  0.44699434  0.34972579  0.76971838    -0.90370
Mn337      Mn  0.08031143  0.01404896  0.81719756     1.47860
O338        O  0.48135896  0.01537355  0.73892408    -0.78850
C339        C  0.40385017  0.39935688  0.74891577     1.14890
O340        O  0.02456747  0.47015862  0.90318579    -0.77580
O341        O  0.02087133  0.46879559  0.73733018    -0.77190
Mn342      Mn  0.38050681  0.41914960  0.82252164     1.51060
O343        O  0.39266978  0.50781481  0.86524758    -0.89550
O344        O  0.05830200  0.46637489  0.78254636    -0.97070
O345        O  0.35460866  0.44101207  0.78125382    -0.92090
C346        C  0.05073101  0.46483234  0.74759347     1.12680
C347        C  0.48577524  0.07535679  0.92215844    -0.06670
C348        C  0.01041184  0.11620618  0.91044934    -0.17800
C349        C  0.01404696  0.14843769  0.93307990     0.10520
C350        C  0.49016025  0.14016490  0.96720028    -0.06600
C351        C  0.46690530  0.09948877  0.98011816    -0.17840
C352        C  0.46476148  0.06705015  0.95829764     0.10550
S353        S  0.05069164  0.19933781  0.91727472    -0.32800
S354        S  0.43321560  0.01632294  0.97761229    -0.32810
H355        H  0.41924669  0.49724347  0.94139549     0.28560
H356        H  0.05942328  0.21619790  0.95509275     0.28560
H357        H  0.02751050  0.12332152  0.88335802     0.19150
H358        H  0.44879208  0.09274320  0.00654586     0.19160
C359        C  0.46741933  0.25971595  0.96081378    -0.06670
C360        C  0.99502785  0.30115558  0.96727172    -0.17800
C361        C  0.99688428  0.33141551  0.94197423     0.10520
C362        C  0.47210903  0.32023911  0.90803377    -0.06630
C363        C  0.44276216  0.27892917  0.90301422    -0.17840
C364        C  0.43957873  0.24885688  0.92930537     0.10550
S365        S  0.02992100  0.38347802  0.95593648    -0.32800
S366        S  0.39905328  0.19735458  0.92118253    -0.32810
H367        H  0.39485066  0.18511064  0.96071034     0.28560
H368        H  0.00340713  0.39713436  0.94245963     0.28560
H369        H  0.01583281  0.31004862  0.99193138     0.19150
H370        H  0.42238648  0.26973955  0.87800758     0.19160
C371        C  0.47737301  0.13847650  0.67781819    -0.06670
C372        C  0.99906540  0.11935259  0.66502549    -0.17800
C373        C  0.99984742  0.08839487  0.68709626     0.10520
C374        C  0.47961773  0.07678850  0.72354220    -0.06600
C375        C  0.45759777  0.09571123  0.73608582    -0.17840
C376        C  0.45523649  0.12534140  0.71329033     0.10550
S377        S  0.03023473  0.06776201  0.66885004    -0.32800
S378        S  0.42284278  0.14448918  0.73087990    -0.32810
H379        H  0.41101276  0.15065244  0.69344357     0.28560
H380        H  0.99670081  0.02803846  0.66644309     0.28560
H381        H  0.01656706  0.12941034  0.63811987     0.19150
H382        H  0.44170367  0.08713242  0.76389170     0.19160
C383        C  0.48724662  0.32934908  0.73065724    -0.06670
C384        C  0.01861050  0.31963573  0.73555577    -0.17800
C385        C  0.02491696  0.29570547  0.70850166     0.10520
C386        C  0.49806568  0.27894529  0.67639582    -0.06600
C387        C  0.46863389  0.29081401  0.66983144    -0.17840
C388        C  0.46384477  0.31672879  0.69586310     0.10550
S389        S  0.06759826  0.28742333  0.71677281    -0.32800
S390        S  0.42918995  0.33413039  0.68161623    -0.32810
H391        H  0.45371115  0.37379458  0.69617019     0.28560
H392        H  0.07281481  0.28093895  0.67717008     0.28560
H393        H  0.03838151  0.33043050  0.76098652     0.19150
H394        H  0.44850845  0.27903115  0.64471892     0.19160
C395        C  0.28855775  0.49069849  0.96501552    -0.06670
C396        C  0.29039705  0.45450102  0.96520273    -0.17800
C397        C  0.31640128  0.44906928  0.93985442     0.10520
C398        C  0.33992558  0.47956131  0.91185361    -0.06600
C399        C  0.33917952  0.01658548  0.91316434    -0.17840
C400        C  0.31466099  0.02273435  0.93975074     0.10550
S401        S  0.31943504  0.40363501  0.94682224    -0.32800
S402        S  0.31829407  0.07227143  0.94006716    -0.32810
H403        H  0.30770444  0.07098728  0.97973388     0.28560
H404        H  0.36210869  0.42401605  0.94304414     0.28560
H405        H  0.27103969  0.42998335  0.98505295     0.19150
H406        H  0.35762414  0.04118448  0.89303840     0.19160
C407        C  0.09021788  0.47652381  0.91692646    -0.06670
C408        C  0.10080387  0.00203600  0.94983437    -0.17800
C409        C  0.13510986  0.01039707  0.97277053     0.10520
C410        C  0.15789825  0.49076901  0.96414711    -0.06600
C411        C  0.14643518  0.46458976  0.93182470    -0.17840
C412        C  0.11416754  0.45836599  0.90745167     0.10550
S413        S  0.14952546  0.04821738  0.01061632    -0.32800
S414        S  0.10379350  0.42598568  0.86509407    -0.32810
H415        H  0.13838888  0.42113672  0.86764716     0.28560
H416        H  0.19165108  0.06243856  0.00803501     0.28560
H417        H  0.08358921  0.01727848  0.95644346     0.19150
H418        H  0.16296301  0.44859541  0.92564021     0.19160
C419        C  0.33393024  0.47655632  0.73753884    -0.06670
C420        C  0.31131870  0.44217542  0.71384810    -0.17800
C421        C  0.28314751  0.44107810  0.68634058     0.10520
C422        C  0.27848471  0.47570235  0.68087831    -0.06600
C423        C  0.30106383  0.01009094  0.70420638    -0.17840
C424        C  0.32741661  0.01033721  0.73330824     0.10550
S425        S  0.25083606  0.39318101  0.66243603    -0.32800
S426        S  0.34699029  0.05211164  0.76732515    -0.32810
H427        H  0.33908034  0.02735474  0.80084186     0.28560
H428        H  0.24881073  0.40995213  0.62624154     0.28560
H429        H  0.31471885  0.41544436  0.71747615     0.19150
H430        H  0.29577054  0.03577233  0.70168194     0.19160
C431        C  0.13709981  0.45300066  0.67435292    -0.06670
C432        C  0.11715069  0.97361662  0.66004373    -0.17800
C433        C  0.08599558  0.97457736  0.68130754     0.10520
C434        C  0.07664052  0.45779371  0.71948356    -0.06600
C435        C  0.09510023  0.43540705  0.73282993    -0.17840
C436        C  0.12329681  0.43099691  0.70999669     0.10550
S437        S  0.06111541  0.99933655  0.65860000    -0.32800
S438        S  0.13926860  0.39589197  0.72772673    -0.32810
H439        H  0.14707402  0.38573878  0.69036225     0.28560
H440        H  0.02182796  0.96575445  0.66410921     0.28560
H441        H  0.12652295  0.99016986  0.63251855     0.19150
H442        H  0.08745660  0.42092462  0.76140601     0.19160
C443        C  0.31657066  0.29662463  0.96278523    -0.06670
C444        C  0.30565131  0.30644568  0.92676685    -0.17800
C445        C  0.33421063  0.33711762  0.90260034     0.10520
C446        C  0.37520567  0.36106108  0.91570295    -0.06600
C447        C  0.38626412  0.35185412  0.95212020    -0.17840
C448        C  0.35779163  0.31920621  0.97519223     0.10550
S449        S  0.31599817  0.34650825  0.85654874    -0.32800
S450        S  0.37672252  0.30652991  0.51859739    -0.32810
H451        H  0.35015933  0.26422586  0.51613519     0.28560
H452        H  0.27549317  0.31439337  0.85856624     0.28560
H453        H  0.27405954  0.29018006  0.91765243     0.19150
H454        H  0.41767122  0.36899440  0.96184827     0.19160
C455        C  0.13181429  0.11096784  0.90698164    -0.06670
C456        C  0.12004403  0.13032314  0.93501283    -0.17800
C457        C  0.14783646  0.15715316  0.96258081     0.10520
C458        C  0.18820181  0.16377343  0.96348538    -0.06600
C459        C  0.19912718  0.14234202  0.93734091    -0.17840
C460        C  0.17211911  0.11707779  0.90868261     0.10550
S461        S  0.13047504  0.18390875  0.49376376    -0.32800
S462        S  0.19294401  0.09702683  0.87330862    -0.32810
H463        H  0.17989757  0.11084904  0.84082474     0.28560
H464        H  0.16630510  0.22190135  0.49051278     0.28560
H465        H  0.08936656  0.12579846  0.93457316     0.19150
H466        H  0.23004321  0.14741717  0.93766099     0.19160
C467        C  0.37259527  0.36753710  0.72312442    -0.06670
C468        C  0.36433452  0.37805001  0.68596917    -0.17800
C469        C  0.33282399  0.34898028  0.66230692     0.10520
C470        C  0.31053090  0.30765007  0.67494255    -0.06600
C471        C  0.32061413  0.29716319  0.71105162    -0.17840
C472        C  0.34953609  0.32628204  0.73587377     0.10550
S473        S  0.32170381  0.36737181  0.61761295    -0.32800
S474        S  0.35649488  0.30830228  0.78301990    -0.32810
H475        H  0.31771702  0.27325933  0.78518396     0.28560
H476        H  0.27932960  0.34093248  0.61910859     0.28560
H477        H  0.38117169  0.40948351  0.67612266     0.19150
H478        H  0.30544139  0.26552243  0.72025013     0.19160
C479        C  0.17681243  0.17871847  0.67834399    -0.06670
C480        C  0.16127411  0.18983661  0.71037438    -0.17800
C481        C  0.13764733  0.16161105  0.73908156     0.10520
C482        C  0.12587427  0.11987766  0.73461846    -0.06600
C483        C  0.13976652  0.10811346  0.70177245    -0.17840
C484        C  0.16544270  0.13700528  0.67381535     0.10550
S485        S  0.12730153  0.18203627  0.78255562    -0.32800
S486        S  0.18560186  0.12025800  0.63451653    -0.32810
H487        H  0.16102693  0.07808287  0.64110393     0.28560
H488        H  0.13549587  0.15796564  0.80876528     0.28560
H489        H  0.16972185  0.22152349  0.71442370     0.19150
H490        H  0.13112354  0.07633365  0.69850114     0.19160
C491        C  0.20939992  0.71211312  0.15427255     0.02580
C492        C  0.20985142  0.71072697  0.11323110    -0.13570
C493        C  0.24476571  0.73840584  0.09160678     0.00080
C494        C  0.27837979  0.76886147  0.11263224    -0.12100
C495        C  0.27587087  0.77437925  0.15284398     0.02570
C496        C  0.24134466  0.74542986  0.17333477    -0.11520
H497        H  0.18289651  0.68743797  0.09898321     0.08160
H498        H  0.30719817  0.78818372  0.09848479     0.05690
H499        H  0.23999523  0.74801157  0.20480716     0.05540
C500        C  0.22114751  0.69698456  0.48660980     0.02580
C501        C  0.21860951  0.69959281  0.02734736    -0.13570
C502        C  0.24712573  0.73485717  0.04784583     0.00080
C503        C  0.27813509  0.76716776  0.02578430    -0.12100
C504        C  0.28362141  0.76278982  0.48589544     0.02570
C505        C  0.25488583  0.72743665  0.46668870    -0.11520
H506        H  0.19398209  0.67391783  0.04209626     0.08160
H507        H  0.29797504  0.79639217  0.03886405     0.05690
H508        H  0.25775103  0.72432354  0.43547816     0.05540
C509        C  0.24494480  0.97385405  0.15689706     0.02580
C510        C  0.24851739  0.97972532  0.11620565    -0.13570
C511        C  0.21466610  0.97372042  0.09320756     0.00080
C512        C  0.17720694  0.96105176  0.11272997    -0.12100
C513        C  0.17453372  0.95890802  0.15386488     0.02570
C514        C  0.20906251  0.96625304  0.17557104    -0.11520
H515        H  0.27796768  0.98917587  0.10330313     0.08160
H516        H  0.14970834  0.95301773  0.09646059     0.05690
H517        H  0.20836394  0.96617329  0.20728378     0.05540
C518        C  0.25615774  0.99228846  0.48808654     0.02580
C519        C  0.25127192  0.98288351  0.02824027    -0.13570
C520        C  0.21855789  0.98159980  0.04958092     0.00080
C521        C  0.18937718  0.98754582  0.02853506    -0.12100
C522        C  0.19289695  0.99477207  0.48793547     0.02570
C523        C  0.22733900  0.99883020  0.46848503    -0.11520
H524        H  0.27290009  0.97590677  0.04209480     0.08160
H525        H  0.16305041  0.98552618  0.04290434     0.05690
H526        H  0.23028197  0.00429363  0.43711243     0.05540
C527        C  0.99524747  0.74416484  0.15382005     0.02580
C528        C  0.99256297  0.74276267  0.11268572    -0.13570
C529        C  0.98391678  0.70681086  0.09229082     0.00080
C530        C  0.97693352  0.67220393  0.11444496    -0.12100
C531        C  0.98135011  0.67399454  0.15525009     0.02570
C532        C  0.99114987  0.71022678  0.17447299    -0.11520
H533        H  0.99766622  0.76993464  0.09711996     0.08160
H534        H  0.96751589  0.64329731  0.10037392     0.05690
H535        H  0.99446029  0.71166338  0.20603277     0.05540
C536        C  0.47152855  0.72887510  0.48475127     0.02580
C537        C  0.47324153  0.73111538  0.02586977    -0.13570
C538        C  0.48199161  0.70477817  0.04835013     0.00080
C539        C  0.48916553  0.67621023  0.02836985    -0.12100
C540        C  0.48583721  0.67255579  0.48753718     0.02570
C541        C  0.47698762  0.69899149  0.46602400    -0.11520
H542        H  0.46729858  0.75327095  0.03987570     0.08160
H543        H  0.49808864  0.65689826  0.04413559     0.05690
H544        H  0.47497579  0.69672787  0.43438241     0.05540
O545        O  0.01094837  0.88003809  0.36879264    -0.88730
C546        C  0.09891720  0.58887602  0.26370050     1.11310
O547        O  0.47983541  0.92767993  0.31983361    -1.36540
O548        O  0.10754136  0.55896082  0.35933425    -0.90210
O549        O  0.44399702  0.84238686  0.35814564    -0.90880
O550        O  0.43790150  0.92468053  0.40347206    -0.79700
O551        O  0.06008724  0.97017600  0.35573896    -1.01790
C552        C  0.48223569  0.54371019  0.39440268     1.21350
O553        O  0.43857182  0.97192074  0.32157593    -1.36680
Mn554      Mn  0.47992657  0.97115165  0.27784765     1.82050
O555        O  0.48106737  0.51122779  0.40487641    -0.78780
O556        O  0.07281989  0.59188495  0.36732975    -0.88170
C557        C  0.48213679  0.54720047  0.25054428     1.12440
C558        C  0.10215719  0.58570672  0.37615736     1.07160
O559        O  0.43547296  0.93031907  0.23688122    -0.79720
O560        O  0.02319560  0.51210027  0.32058541    -1.33410
O561        O  0.40030401  0.89473511  0.28397307    -0.98930
C562        C  0.36511521  0.97502312  0.38055903     1.05880
Mn563      Mn  0.02803941  0.57035763  0.32306118     1.48570
O564        O  0.35800418  0.93992933  0.36910942    -0.88120
Mn565      Mn  0.42567883  0.87115279  0.31686840     1.49560
O566        O  0.01341810  0.87672197  0.28147013    -0.92000
C567        C  0.05668637  0.97190069  0.39089215     1.19070
C568        C  0.48178673  0.85344661  0.26212875     1.11130
Mn569      Mn  0.48065052  0.96939222  0.36367074     1.80970
O570        O  0.48270609  0.55252647  0.28578473    -0.97150
Mn571      Mn  0.03318326  0.92275915  0.32217587     1.49260
C572        C  0.47607913  0.84975596  0.37683598     1.07650
Mn573      Mn  0.43695265  0.52720224  0.32214726     1.49930
C574        C  0.36219388  0.97543992  0.26738905     1.10550
O575        O  0.40189605  0.89145354  0.35554378    -1.02960
O576        O  0.07251128  0.59515162  0.28022937    -0.92620
C577        C  0.40651159  0.89389136  0.39067865     1.21840
O578        O  0.48232665  0.55013073  0.35937466    -1.03340
O579        O  0.10355426  0.55832001  0.27185805    -0.90740
O580        O  0.39255439  0.00881829  0.27831212    -0.90350
O581        O  0.44699432  0.84972578  0.26971839    -0.90370
Mn582      Mn  0.08031142  0.51404895  0.31719754     1.47860
O583        O  0.48135894  0.51537353  0.23892407    -0.78850
C584        C  0.40385013  0.89935686  0.24891577     1.14890
O585        O  0.02456748  0.97015863  0.40318577    -0.77580
O586        O  0.02087130  0.96879558  0.23733016    -0.77190
Mn587      Mn  0.38050680  0.91914959  0.32252165     1.51060
O588        O  0.39266975  0.00781480  0.36524756    -0.89550
O589        O  0.05830198  0.96637489  0.28254633    -0.97070
O590        O  0.35460863  0.94101206  0.28125383    -0.92090
C591        C  0.05073098  0.96483232  0.24759344     1.12680
C592        C  0.48577523  0.57535678  0.42215843    -0.06670
C593        C  0.01041187  0.61620619  0.41044932    -0.17800
C594        C  0.01404699  0.64843771  0.43307987     0.10520
C595        C  0.49016027  0.64016491  0.46720026    -0.06600
C596        C  0.46690532  0.59948879  0.48011815    -0.17840
C597        C  0.46476149  0.56705015  0.45829763     0.10550
S598        S  0.05069167  0.69933783  0.41727467    -0.32800
S599        S  0.43321560  0.51632295  0.47761230    -0.32810
H600        H  0.41924669  0.99724346  0.44139548     0.28560
H601        H  0.05942333  0.71619793  0.45509270     0.28560
H602        H  0.02751051  0.62332152  0.38335799     0.19150
H603        H  0.44879211  0.59274323  0.50654586     0.19160
C604        C  0.46741937  0.75971598  0.46081378    -0.06670
C605        C  0.99502789  0.80115562  0.46727172    -0.17800
C606        C  0.99688431  0.83141554  0.44197423     0.10520
C607        C  0.47210906  0.82023913  0.40803378    -0.06630
C608        C  0.44276218  0.77892919  0.40301423    -0.17840
C609        C  0.43957876  0.74885690  0.42930538     0.10550
S610        S  0.02992101  0.88347806  0.45593648    -0.32800
S611        S  0.39905331  0.69735461  0.42118256    -0.32810
H612        H  0.39485070  0.68511067  0.46071037     0.28560
H613        H  0.00340714  0.89713439  0.44245962     0.28560
H614        H  0.01583285  0.81004867  0.49193138     0.19150
H615        H  0.42238649  0.76973957  0.37800760     0.19160
C616        C  0.47737295  0.63847646  0.17781819    -0.06670
C617        C  0.99906538  0.61935257  0.16502549    -0.17800
C618        C  0.99984741  0.58839487  0.18709626     0.10520
C619        C  0.47961768  0.57678847  0.22354219    -0.06600
C620        C  0.45759780  0.59571127  0.23608587    -0.17840
C621        C  0.45523651  0.62534143  0.21329038     0.10550
S622        S  0.03023477  0.56776204  0.16885007    -0.32800
S623        S  0.42284289  0.64448928  0.23088003    -0.32810
H624        H  0.41101279  0.65065252  0.19344373     0.28560
H625        H  0.99670087  0.52803848  0.16644310     0.28560
H626        H  0.01656707  0.62941035  0.13811988     0.19150
H627        H  0.44170377  0.58713250  0.26389178     0.19160
C628        C  0.48724659  0.82934906  0.23065724    -0.06670
C629        C  0.01861045  0.81963569  0.23555578    -0.17800
C630        C  0.02491690  0.79570542  0.20850168     0.10520
C631        C  0.49806566  0.77894527  0.17639582    -0.06600
C632        C  0.46863386  0.79081398  0.16983144    -0.17840
C633        C  0.46384473  0.81672876  0.19586310     0.10550
S634        S  0.06759818  0.78742326  0.21677282    -0.32800
S635        S  0.42918990  0.83413034  0.18161625    -0.32810
H636        H  0.45371110  0.87379453  0.19617019     0.28560
H637        H  0.07281474  0.78093888  0.17717010     0.28560
H638        H  0.03838146  0.83043046  0.26098653     0.19150
H639        H  0.44850841  0.77903111  0.14471893     0.19160
C640        C  0.28855775  0.99069849  0.46501552    -0.06670
C641        C  0.29039704  0.95450102  0.46520272    -0.17800
C642        C  0.31640127  0.94906928  0.43985441     0.10520
C643        C  0.33992557  0.97956131  0.41185360    -0.06600
C644        C  0.33917952  0.51658546  0.41316435    -0.17840
C645        C  0.31466099  0.52273433  0.43975075     0.10550
S646        S  0.31943501  0.90363499  0.44682221    -0.32800
S647        S  0.31829408  0.57227141  0.44006718    -0.32810
H648        H  0.30770445  0.57098726  0.47973390     0.28560
H649        H  0.36210866  0.92401603  0.44304414     0.28560
H650        H  0.27103968  0.92998334  0.48505294     0.19150
H651        H  0.35762415  0.54118446  0.39303842     0.19160
C652        C  0.09021790  0.97652383  0.41692643    -0.06670
C653        C  0.10080388  0.50203600  0.44983436    -0.17800
C654        C  0.13510986  0.51039707  0.47277053     0.10520
C655        C  0.15789825  0.99076902  0.46414711    -0.06600
C656        C  0.14643518  0.96458977  0.43182468    -0.17840
C657        C  0.11416755  0.95836601  0.40745165     0.10550
S658        S  0.14952547  0.54821739  0.51061630    -0.32800
S659        S  0.10379352  0.92598570  0.36509404    -0.32810
H660        H  0.13838885  0.92113667  0.36764718     0.28560
H661        H  0.19165110  0.56243856  0.50803499     0.28560
H662        H  0.08358922  0.51727849  0.45644345     0.19150
H663        H  0.16296301  0.94859541  0.42564020     0.19160
C664        C  0.33393022  0.97655629  0.23753881    -0.06670
C665        C  0.31131860  0.94217534  0.21384815    -0.17800
C666        C  0.28314740  0.94107799  0.18634063     0.10520
C667        C  0.27848465  0.97570227  0.18087829    -0.06600
C668        C  0.30106385  0.51009094  0.20420636    -0.17840
C669        C  0.32741663  0.51033721  0.23330821     0.10550
S670        S  0.25083590  0.89318087  0.16243617    -0.32800
S671        S  0.34699035  0.55211167  0.26732510    -0.32810
H672        H  0.33908037  0.52735478  0.30084182     0.28560
H673        H  0.24881041  0.90995191  0.12624169     0.28560
H674        H  0.31471872  0.91544426  0.21747626     0.19150
H675        H  0.29577058  0.53577234  0.20168191     0.19160
C676        C  0.13709975  0.95300060  0.17435289    -0.06670
C677        C  0.11715068  0.47361660  0.16004372    -0.17800
C678        C  0.08599555  0.47457734  0.18130753     0.10520
C679        C  0.07664047  0.95779366  0.21948353    -0.06600
C680        C  0.09510019  0.93540702  0.23282992    -0.17840
C681        C  0.12329676  0.93099687  0.20999668     0.10550
S682        S  0.06111537  0.49933650  0.15859997    -0.32800
S683        S  0.13926854  0.89589193  0.22772673    -0.32810
H684        H  0.14707395  0.88573872  0.19036226     0.28560
H685        H  0.02182792  0.46575440  0.16410920     0.28560
H686        H  0.12652293  0.49016984  0.13251854     0.19150
H687        H  0.08745657  0.92092461  0.26140601     0.19160
C688        C  0.31657074  0.79662459  0.46278522    -0.06670
C689        C  0.30565136  0.80644567  0.42676686    -0.17800
C690        C  0.33421066  0.83711761  0.40260036     0.10520
C691        C  0.37520570  0.86106109  0.41570295    -0.06600
C692        C  0.38626418  0.85185411  0.45212018    -0.17840
C693        C  0.35779171  0.81920619  0.47519221     0.10550
S694        S  0.31599817  0.84650825  0.35654878    -0.32800
S695        S  0.37672252  0.80652993  0.01859740    -0.32810
H696        H  0.35015932  0.76422588  0.01613519     0.28560
H697        H  0.27549328  0.81439312  0.35856612     0.28560
H698        H  0.27405958  0.79018006  0.41765247     0.19150
H699        H  0.41767127  0.86899441  0.46184825     0.19160
C700        C  0.13181432  0.61096785  0.40698160    -0.06670
C701        C  0.12004409  0.63032316  0.43501280    -0.17800
C702        C  0.14783654  0.65715316  0.46258078     0.10520
C703        C  0.18820188  0.66377341  0.46348533    -0.06600
C704        C  0.19912723  0.64234200  0.43734084    -0.17840
C705        C  0.17211915  0.61707779  0.40868254     0.10550
S706        S  0.13047496  0.68390852  0.99376396    -0.32800
S707        S  0.19294402  0.59702683  0.37330853    -0.32810
H708        H  0.17989755  0.61084904  0.34082466     0.28560
H709        H  0.16630495  0.72190118  0.99051295     0.28560
H710        H  0.08936663  0.62579850  0.43457314     0.19150
H711        H  0.23004325  0.64741713  0.43766090     0.19160
C712        C  0.37259523  0.86753708  0.22312443    -0.06670
C713        C  0.36433448  0.87804999  0.18596919    -0.17800
C714        C  0.33282395  0.84898026  0.16230694     0.10520
C715        C  0.31053087  0.80765004  0.17494256    -0.06600
C716        C  0.32061410  0.79716317  0.21105163    -0.17840
C717        C  0.34953606  0.82628202  0.23587378     0.10550
S718        S  0.32170375  0.86737179  0.11761298    -0.32800
S719        S  0.35649486  0.80830226  0.28301991    -0.32810
H720        H  0.31771706  0.77325923  0.28518393     0.28560
H721        H  0.27932955  0.84093245  0.11910862     0.28560
H722        H  0.38117164  0.90948349  0.17612268     0.19150
H723        H  0.30544137  0.76552240  0.22025013     0.19160
C724        C  0.17681239  0.67871845  0.17834397    -0.06670
C725        C  0.16127410  0.68983660  0.21037438    -0.17800
C726        C  0.13764733  0.66161103  0.23908155     0.10520
C727        C  0.12587424  0.61987764  0.23461843    -0.06600
C728        C  0.13976646  0.60811344  0.20177241    -0.17840
C729        C  0.16544264  0.63700526  0.17381530     0.10550
S730        S  0.12730157  0.68203625  0.28255564    -0.32800
S731        S  0.18560175  0.62025797  0.13451645    -0.32810
H732        H  0.16102676  0.57808284  0.14110381     0.28560
H733        H  0.13549590  0.65796559  0.30876528     0.28560
H734        H  0.16972185  0.72152348  0.21442371     0.19150
H735        H  0.13112347  0.57633362  0.19850108     0.19160
C736        C  0.20939997  0.71211309  0.65427256     0.02580
C737        C  0.20985148  0.71072692  0.61323112    -0.13570
C738        C  0.24476575  0.73840580  0.59160679     0.00080
C739        C  0.27837982  0.76886144  0.61263225    -0.12100
C740        C  0.27587090  0.77437924  0.65284398     0.02570
C741        C  0.24134469  0.74542985  0.67333478    -0.11520
H742        H  0.18289658  0.68743788  0.59898323     0.08160
H743        H  0.30719821  0.78818370  0.59848479     0.05690
H744        H  0.23999524  0.74801158  0.70480716     0.05540
C745        C  0.22114749  0.69698458  0.98660981     0.02580
C746        C  0.21860954  0.69959278  0.52734736    -0.13570
C747        C  0.24712578  0.73485713  0.54784583     0.00080
C748        C  0.27813514  0.76716772  0.52578431    -0.12100
C749        C  0.28362138  0.76278985  0.98589544     0.02570
C750        C  0.25488580  0.72743667  0.96668870    -0.11520
H751        H  0.19398212  0.67391780  0.54209625     0.08160
H752        H  0.29797509  0.79639213  0.53886406     0.05690
H753        H  0.25775101  0.72432356  0.93547817     0.05540
C754        C  0.24494484  0.97385409  0.65689706     0.02580
C755        C  0.24851742  0.97972536  0.61620565    -0.13570
C756        C  0.21466612  0.97372044  0.59320756     0.00080
C757        C  0.17720697  0.96105180  0.61272998    -0.12100
C758        C  0.17453376  0.95890806  0.65386489     0.02570
C759        C  0.20906255  0.96625308  0.67557105    -0.11520
H760        H  0.27796770  0.98917591  0.60330312     0.08160
H761        H  0.14970837  0.95301777  0.59646060     0.05690
H762        H  0.20836399  0.96617332  0.70728378     0.05540
C763        C  0.25615775  0.99228847  0.98808655     0.02580
C764        C  0.25127192  0.98288351  0.52824027    -0.13570
C765        C  0.21855790  0.98159981  0.54958092     0.00080
C766        C  0.18937718  0.98754582  0.52853505    -0.12100
C767        C  0.19289696  0.99477208  0.98793547     0.02570
C768        C  0.22733901  0.99883021  0.96848504    -0.11520
H769        H  0.27290010  0.97590679  0.54209480     0.08160
H770        H  0.16305041  0.98552618  0.54290434     0.05690
H771        H  0.23028198  0.00429365  0.93711244     0.05540
C772        C  0.99524751  0.74416486  0.65382005     0.02580
C773        C  0.99256300  0.74276270  0.61268572    -0.13570
C774        C  0.98391681  0.70681088  0.59229082     0.00080
C775        C  0.97693356  0.67220395  0.61444496    -0.12100
C776        C  0.98135015  0.67399456  0.65525009     0.02570
C777        C  0.99114990  0.71022681  0.67447299    -0.11520
H778        H  0.99766625  0.76993466  0.59711996     0.08160
H779        H  0.96751593  0.64329733  0.60037392     0.05690
H780        H  0.99446033  0.71166340  0.70603277     0.05540
C781        C  0.47152851  0.72887508  0.98475126     0.02580
C782        C  0.47324158  0.73111540  0.52586977    -0.13570
C783        C  0.48199167  0.70477820  0.54835013     0.00080
C784        C  0.48916559  0.67621026  0.52836984    -0.12100
C785        C  0.48583718  0.67255578  0.98753719     0.02570
C786        C  0.47698759  0.69899147  0.96602400    -0.11520
H787        H  0.46729864  0.75327097  0.53987571     0.08160
H788        H  0.49808870  0.65689829  0.54413557     0.05690
H789        H  0.47497579  0.69672786  0.93438241     0.05540
O790        O  0.01094837  0.88003808  0.86879265    -0.88730
C791        C  0.09891721  0.58887602  0.76370051     1.11310
O792        O  0.47983541  0.92767993  0.81983362    -1.36540
O793        O  0.10754135  0.55896082  0.85933427    -0.90210
O794        O  0.44399701  0.84238686  0.85814564    -0.90880
O795        O  0.43790150  0.92468053  0.90347207    -0.79700
O796        O  0.06008723  0.97017600  0.85573899    -1.01790
C797        C  0.48223570  0.54371020  0.89440269     1.21350
O798        O  0.43857184  0.97192075  0.82157594    -1.36680
Mn799      Mn  0.47992658  0.97115166  0.77784766     1.82050
O800        O  0.48106738  0.51122779  0.90487642    -0.78780
O801        O  0.07281989  0.59188495  0.86732975    -0.88170
C802        C  0.48213683  0.54720049  0.75054429     1.12440
C803        C  0.10215719  0.58570672  0.87615737     1.07160
O804        O  0.43547298  0.93031908  0.73688122    -0.79720
O805        O  0.02319560  0.51210027  0.82058542    -1.33410
O806        O  0.40030402  0.89473513  0.78397307    -0.98930
C807        C  0.36511523  0.97502314  0.88055904     1.05880
Mn808      Mn  0.02803941  0.57035763  0.82306119     1.48570
O809        O  0.35800419  0.93992934  0.86910942    -0.88120
Mn810      Mn  0.42567882  0.87115280  0.81686840     1.49560
O811        O  0.01341813  0.87672199  0.78147014    -0.92000
C812        C  0.05668636  0.97190068  0.89089218     1.19070
C813        C  0.48178672  0.85344662  0.76212875     1.11130
Mn814      Mn  0.48065053  0.96939223  0.86367075     1.80970
O815        O  0.48270611  0.55252648  0.78578474    -0.97150
Mn816      Mn  0.03318328  0.92275915  0.82217589     1.49260
C817        C  0.47607911  0.84975595  0.87683597     1.07650
Mn818      Mn  0.43695267  0.52720225  0.82214727     1.49930
C819        C  0.36219390  0.97543995  0.76738905     1.10550
O820        O  0.40189605  0.89145355  0.85554378    -1.02960
O821        O  0.07251129  0.59515161  0.78022937    -0.92620
C822        C  0.40651159  0.89389137  0.89067865     1.21840
O823        O  0.48232667  0.55013075  0.85937467    -1.03340
O824        O  0.10355428  0.55832002  0.77185807    -0.90740
O825        O  0.39255440  0.00881832  0.77831214    -0.90350
O826        O  0.44699431  0.84972578  0.76971839    -0.90370
Mn827      Mn  0.08031142  0.51404895  0.81719755     1.47860
O828        O  0.48135898  0.51537356  0.73892408    -0.78850
C829        C  0.40385015  0.89935688  0.74891578     1.14890
O830        O  0.02456747  0.97015862  0.90318579    -0.77580
O831        O  0.02087134  0.96879560  0.73733018    -0.77190
Mn832      Mn  0.38050681  0.91914961  0.82252165     1.51060
O833        O  0.39266977  0.00781483  0.86524758    -0.89550
O834        O  0.05830201  0.96637490  0.78254636    -0.97070
O835        O  0.35460865  0.94101208  0.78125383    -0.92090
C836        C  0.05073102  0.96483235  0.74759347     1.12680
C837        C  0.48577524  0.57535678  0.92215844    -0.06670
C838        C  0.01041187  0.61620619  0.91044933    -0.17800
C839        C  0.01404699  0.64843770  0.93307988     0.10520
C840        C  0.49016026  0.64016490  0.96720027    -0.06600
C841        C  0.46690531  0.59948878  0.98011816    -0.17840
C842        C  0.46476149  0.56705015  0.95829764     0.10550
S843        S  0.05069167  0.69933782  0.91727468    -0.32800
S844        S  0.43321561  0.51632295  0.97761230    -0.32810
H845        H  0.41924669  0.99724346  0.94139548     0.28560
H846        H  0.05942333  0.71619792  0.95509271     0.28560
H847        H  0.02751051  0.62332152  0.88335800     0.19150
H848        H  0.44879209  0.59274321  0.00654586     0.19160
C849        C  0.46741934  0.75971596  0.96081377    -0.06670
C850        C  0.99502788  0.80115560  0.96727172    -0.17800
C851        C  0.99688430  0.83141553  0.94197423     0.10520
C852        C  0.47210904  0.82023912  0.90803377    -0.06630
C853        C  0.44276217  0.77892917  0.90301421    -0.17840
C854        C  0.43957874  0.74885688  0.92930536     0.10550
S855        S  0.02992101  0.88347805  0.95593648    -0.32800
S856        S  0.39905330  0.69735459  0.92118253    -0.32810
H857        H  0.39485068  0.68511065  0.96071034     0.28560
H858        H  0.00340713  0.89713438  0.94245963     0.28560
H859        H  0.01583284  0.81004865  0.99193138     0.19150
H860        H  0.42238648  0.76973956  0.87800758     0.19160
C861        C  0.47737302  0.63847648  0.67781819    -0.06670
C862        C  0.99906544  0.61935261  0.66502551    -0.17800
C863        C  0.99984747  0.58839491  0.68709628     0.10520
C864        C  0.47961774  0.57678850  0.72354220    -0.06600
C865        C  0.45759773  0.59571118  0.73608579    -0.17840
C866        C  0.45523645  0.62534134  0.71329029     0.10550
S867        S  0.03023486  0.56776211  0.66885012    -0.32800
S868        S  0.42284267  0.64448907  0.73087981    -0.32810
H869        H  0.41101269  0.65065234  0.69344346     0.28560
H870        H  0.99670097  0.52803854  0.66644311     0.28560
H871        H  0.01656714  0.62941040  0.63811991     0.19150
H872        H  0.44170358  0.58713233  0.76389165     0.19160
C873        C  0.48724658  0.82934906  0.73065724    -0.06670
C874        C  0.01861048  0.81963571  0.73555578    -0.17800
C875        C  0.02491694  0.79570544  0.70850168     0.10520
C876        C  0.49806563  0.77894525  0.67639583    -0.06600
C877        C  0.46863383  0.79081396  0.66983145    -0.17840
C878        C  0.46384471  0.81672875  0.69586311     0.10550
S879        S  0.06759822  0.78742328  0.71677283    -0.32800
S880        S  0.42918988  0.83413033  0.68161625    -0.32810
H881        H  0.45371108  0.87379453  0.69617019     0.28560
H882        H  0.07281477  0.78093890  0.67717010     0.28560
H883        H  0.03838150  0.83043047  0.76098653     0.19150
H884        H  0.44850839  0.77903109  0.64471895     0.19160
C885        C  0.28855775  0.99069850  0.96501553    -0.06670
C886        C  0.29039705  0.95450103  0.96520273    -0.17800
C887        C  0.31640128  0.94906929  0.93985442     0.10520
C888        C  0.33992558  0.97956132  0.91185361    -0.06600
C889        C  0.33917951  0.51658546  0.91316433    -0.17840
C890        C  0.31466098  0.52273433  0.93975073     0.10550
S891        S  0.31943502  0.90363500  0.94682222    -0.32800
S892        S  0.31829406  0.57227141  0.94006714    -0.32810
H893        H  0.30770444  0.57098727  0.97973387     0.28560
H894        H  0.36210867  0.92401604  0.94304414     0.28560
H895        H  0.27103968  0.92998335  0.98505294     0.19150
H896        H  0.35762413  0.54118446  0.89303839     0.19160
C897        C  0.09021789  0.97652382  0.91692646    -0.06670
C898        C  0.10080387  0.50203600  0.94983437    -0.17800
C899        C  0.13510986  0.51039707  0.97277053     0.10520
C900        C  0.15789826  0.99076903  0.96414712    -0.06600
C901        C  0.14643519  0.96458978  0.93182469    -0.17840
C902        C  0.11416755  0.95836601  0.90745167     0.10550
S903        S  0.14952546  0.54821738  0.01061630    -0.32800
S904        S  0.10379352  0.92598570  0.86509406    -0.32810
H905        H  0.13838888  0.92113673  0.86764716     0.28560
H906        H  0.19165109  0.56243856  0.00803499     0.28560
H907        H  0.08358921  0.51727848  0.95644346     0.19150
H908        H  0.16296302  0.94859543  0.92564020     0.19160
C909        C  0.33393024  0.97655632  0.73753882    -0.06670
C910        C  0.31131868  0.94217540  0.71384812    -0.17800
C911        C  0.28314749  0.94107806  0.68634059     0.10520
C912        C  0.27848469  0.97570232  0.68087829    -0.06600
C913        C  0.30106382  0.51009095  0.70420644    -0.17840
C914        C  0.32741659  0.51033721  0.73330829     0.10550
S915        S  0.25083602  0.89318095  0.66243607    -0.32800
S916        S  0.34699023  0.55211159  0.76732525    -0.32810
H917        H  0.33908029  0.52735466  0.80084193     0.28560
H918        H  0.24881061  0.90995204  0.62624159     0.28560
H919        H  0.31471882  0.91544433  0.71747619     0.19150
H920        H  0.29577052  0.53577234  0.70168202     0.19160
C921        C  0.13709980  0.95300064  0.67435291    -0.06670
C922        C  0.11715070  0.47361663  0.66004373    -0.17800
C923        C  0.08599557  0.47457736  0.68130754     0.10520
C924        C  0.07664052  0.95779371  0.71948356    -0.06600
C925        C  0.09510023  0.93540705  0.73282993    -0.17840
C926        C  0.12329680  0.93099689  0.70999669     0.10550
S927        S  0.06111540  0.49933653  0.65860000    -0.32800
S928        S  0.13926857  0.89589194  0.72772672    -0.32810
H929        H  0.14707398  0.88573875  0.69036224     0.28560
H930        H  0.02182795  0.46575444  0.66410921     0.28560
H931        H  0.12652296  0.49016987  0.63251856     0.19150
H932        H  0.08745659  0.92092462  0.76140601     0.19160
C933        C  0.31657071  0.79662462  0.96278522    -0.06670
C934        C  0.30565135  0.80644568  0.92676686    -0.17800
C935        C  0.33421066  0.83711762  0.90260035     0.10520
C936        C  0.37520569  0.86106110  0.91570295    -0.06600
C937        C  0.38626416  0.85185413  0.95212019    -0.17840
C938        C  0.35779168  0.81920621  0.97519222     0.10550
S939        S  0.31599817  0.84650826  0.85654877    -0.32800
S940        S  0.37672256  0.80652990  0.51859737    -0.32810
H941        H  0.35015936  0.76422585  0.51613516     0.28560
H942        H  0.27549330  0.81439309  0.85856608     0.28560
H943        H  0.27405957  0.79018007  0.91765245     0.19150
H944        H  0.41767125  0.86899442  0.96184826     0.19160
C945        C  0.13181432  0.61096785  0.90698160    -0.06670
C946        C  0.12004406  0.63032313  0.93501282    -0.17800
C947        C  0.14783651  0.65715315  0.96258079     0.10520
C948        C  0.18820186  0.66377342  0.96348533    -0.06600
C949        C  0.19912723  0.64234203  0.93734083    -0.17840
C950        C  0.17211915  0.61707782  0.90868254     0.10550
S951        S  0.13047501  0.68390857  0.49376392    -0.32800
S952        S  0.19294404  0.59702690  0.87330849    -0.32810
H953        H  0.17989752  0.61084909  0.84082464     0.28560
H954        H  0.16630502  0.72190120  0.49051294     0.28560
H955        H  0.08936659  0.62579845  0.93457317     0.19150
H956        H  0.23004326  0.64741718  0.93766088     0.19160
C957        C  0.37259525  0.86753709  0.72312444    -0.06670
C958        C  0.36433450  0.87804999  0.68596918    -0.17800
C959        C  0.33282398  0.84898026  0.66230693     0.10520
C960        C  0.31053089  0.80765004  0.67494256    -0.06600
C961        C  0.32061411  0.79716318  0.71105165    -0.17840
C962        C  0.34953607  0.82628203  0.73587380     0.10550
S963        S  0.32170381  0.86737177  0.61761295    -0.32800
S964        S  0.35649486  0.80830228  0.78301993    -0.32810
H965        H  0.31771709  0.77325921  0.78518393     0.28560
H966        H  0.27932960  0.84093244  0.61910858     0.28560
H967        H  0.38117167  0.90948349  0.67612267     0.19150
H968        H  0.30544137  0.76552242  0.72025016     0.19160
C969        C  0.17681244  0.67871843  0.67834398    -0.06670
C970        C  0.16127408  0.68983658  0.71037433    -0.17800
C971        C  0.13764728  0.66161102  0.73908150     0.10520
C972        C  0.12587426  0.61987763  0.73461844    -0.06600
C973        C  0.13976656  0.60811343  0.70177247    -0.17840
C974        C  0.16544275  0.63700525  0.67381537     0.10550
S975        S  0.12730141  0.68203625  0.78255552    -0.32800
S976        S  0.18560198  0.62025797  0.63451661    -0.32810
H977        H  0.16102709  0.57808285  0.64110403     0.28560
H978        H  0.13549579  0.65796568  0.80876523     0.28560
H979        H  0.16972179  0.72152345  0.71442362     0.19150
H980        H  0.13112361  0.57633363  0.69850119     0.19160
C981        C  0.70939983  0.21211322  0.15427255     0.02580
C982        C  0.70985130  0.21072713  0.11323109    -0.13570
C983        C  0.74476563  0.23840593  0.09160678     0.00080
C984        C  0.77837975  0.26886148  0.11263224    -0.12100
C985        C  0.77587086  0.27437927  0.15284398     0.02570
C986        C  0.74134464  0.24542990  0.17333478    -0.11520
H987        H  0.68289634  0.18743823  0.09898318     0.08160
H988        H  0.80719814  0.28818368  0.09848478     0.05690
H989        H  0.73999525  0.24801159  0.20480717     0.05540
C990        C  0.72114747  0.19698457  0.48660980     0.02580
C991        C  0.71860944  0.19959286  0.02734738    -0.13570
C992        C  0.74712566  0.23485724  0.04784584     0.00080
C993        C  0.77813503  0.26716781  0.02578431    -0.12100
C994        C  0.78362138  0.26278982  0.48589543     0.02570
C995        C  0.75488580  0.22743664  0.46668869    -0.11520
H996        H  0.69398203  0.17391789  0.04209630     0.08160
H997        H  0.79797497  0.29639222  0.03886405     0.05690
H998        H  0.75775101  0.22432351  0.43547816     0.05540
C999        C  0.74494483  0.47385410  0.15689707     0.02580
C1000       C  0.74851742  0.47972537  0.11620566    -0.13570
C1001       C  0.71466612  0.47372044  0.09320756     0.00080
C1002       C  0.67720696  0.46105178  0.11272998    -0.12100
C1003       C  0.67453375  0.45890805  0.15386488     0.02570
C1004       C  0.70906253  0.46625309  0.17557105    -0.11520
H1005       H  0.77796770  0.48917592  0.10330314     0.08160
H1006       H  0.64970836  0.45301773  0.09646059     0.05690
H1007       H  0.70836397  0.46617335  0.20728379     0.05540
C1008       C  0.75615774  0.49228844  0.48808655     0.02580
C1009       C  0.75127193  0.48288351  0.02824028    -0.13570
C1010       C  0.71855790  0.48159981  0.04958093     0.00080
C1011       C  0.68937719  0.48754582  0.02853506    -0.12100
C1012       C  0.69289695  0.49477206  0.48793547     0.02570
C1013       C  0.72733900  0.49883018  0.46848503    -0.11520
H1014       H  0.77290010  0.47590678  0.04209481     0.08160
H1015       H  0.66305042  0.48552619  0.04290435     0.05690
H1016       H  0.73028197  0.50429361  0.43711243     0.05540
C1017       C  0.49524753  0.24416489  0.15382003     0.02580
C1018       C  0.49256297  0.24276269  0.11268571    -0.13570
C1019       C  0.48391674  0.20681086  0.09229083     0.00080
C1020       C  0.47693347  0.17220393  0.11444497    -0.12100
C1021       C  0.48135012  0.17399456  0.15525010     0.02570
C1022       C  0.49114996  0.21022684  0.17447298    -0.11520
H1023       H  0.49766622  0.26993465  0.09711994     0.08160
H1024       H  0.46751577  0.14329729  0.10037394     0.05690
H1025       H  0.49446045  0.21166347  0.20603275     0.05540
C1026       C  0.97152853  0.22887508  0.48475127     0.02580
C1027       C  0.97324151  0.23111537  0.02586977    -0.13570
C1028       C  0.98199160  0.20477816  0.04835014     0.00080
C1029       C  0.98916551  0.17621022  0.02836985    -0.12100
C1030       C  0.98583719  0.17255578  0.48753718     0.02570
C1031       C  0.97698760  0.19899147  0.46602400    -0.11520
H1032       H  0.96729857  0.25327094  0.03987570     0.08160
H1033       H  0.99808862  0.15689825  0.04413559     0.05690
H1034       H  0.97497577  0.19672785  0.43438241     0.05540
O1035       O  0.51094839  0.38003809  0.36879264    -0.88730
C1036       C  0.59891718  0.08887603  0.26370048     1.11310
O1037       O  0.97983541  0.42767992  0.31983362    -1.36540
O1038       O  0.60754136  0.05896085  0.35933421    -0.90210
O1039       O  0.94399701  0.34238685  0.35814565    -0.90880
O1040       O  0.93790149  0.42468052  0.40347207    -0.79700
O1041       O  0.56008725  0.47017601  0.35573896    -1.01790
C1042       C  0.98223568  0.04371019  0.39440268     1.21350
O1043       O  0.93857183  0.47192074  0.32157594    -1.36680
Mn1044     Mn  0.97992658  0.47115164  0.27784766     1.82050
O1045       O  0.98106737  0.01122779  0.40487641    -0.78780
O1046       O  0.57281987  0.09188494  0.36732976    -0.88170
C1047       C  0.98213680  0.04720047  0.25054428     1.12440
C1048       C  0.60215718  0.08570672  0.37615735     1.07160
O1049       O  0.93547298  0.43031907  0.23688122    -0.79720
O1050       O  0.52319559  0.01210027  0.32058539    -1.33410
O1051       O  0.90030402  0.39473511  0.28397307    -0.98930
C1052       C  0.86511522  0.47502312  0.38055904     1.05880
Mn1053     Mn  0.52803940  0.07035763  0.32306118     1.48570
O1054       O  0.85800418  0.43992932  0.36910941    -0.88120
Mn1055     Mn  0.92567882  0.37115279  0.31686840     1.49560
O1056       O  0.51341812  0.37672198  0.28147013    -0.92000
C1057       C  0.55668638  0.47190070  0.39089215     1.19070
C1058       C  0.98178672  0.35344660  0.26212875     1.11130
Mn1059     Mn  0.98065052  0.46939221  0.36367075     1.80970
O1060       O  0.98270609  0.05252647  0.28578473    -0.97150
Mn1061     Mn  0.53318327  0.42275915  0.32217587     1.49260
C1062       C  0.97607911  0.34975594  0.37683598     1.07650
Mn1063     Mn  0.93695265  0.02720224  0.32214725     1.49930
C1064       C  0.86219388  0.47543993  0.26738906     1.10550
O1065       O  0.90189605  0.39145354  0.35554378    -1.02960
O1066       O  0.57251129  0.09515165  0.28022938    -0.92620
C1067       C  0.90651158  0.39389136  0.39067865     1.21840
O1068       O  0.98232665  0.05013074  0.35937466    -1.03340
O1069       O  0.60355422  0.05832001  0.27185800    -0.90740
O1070       O  0.89255438  0.50881830  0.27831215    -0.90350
O1071       O  0.94699431  0.34972577  0.26971839    -0.90370
Mn1072     Mn  0.58031141  0.01404896  0.31719751     1.47860
O1073       O  0.98135894  0.01537353  0.23892407    -0.78850
C1074       C  0.90385014  0.39935685  0.24891578     1.14890
O1075       O  0.52456749  0.47015863  0.40318577    -0.77580
O1076       O  0.52087130  0.46879559  0.23733015    -0.77190
Mn1077     Mn  0.88050680  0.41914959  0.32252165     1.51060
O1078       O  0.89266977  0.50781480  0.36524758    -0.89550
O1079       O  0.55830198  0.46637489  0.28254633    -0.97070
O1080       O  0.85460864  0.44101205  0.28125382    -0.92090
C1081       C  0.55073098  0.46483232  0.24759344     1.12680
C1082       C  0.98577522  0.07535678  0.42215843    -0.06670
C1083       C  0.51041184  0.11620618  0.41044932    -0.17800
C1084       C  0.51404697  0.14843769  0.43307987     0.10520
C1085       C  0.99016026  0.14016490  0.46720026    -0.06600
C1086       C  0.96690531  0.09948878  0.48011815    -0.17840
C1087       C  0.96476148  0.06705015  0.45829763     0.10550
S1088       S  0.55069165  0.19933781  0.41727468    -0.32800
S1089       S  0.93321560  0.01632294  0.47761229    -0.32810
H1090       H  0.91924670  0.49724348  0.44139549     0.28560
H1091       H  0.55942331  0.21619791  0.45509272     0.28560
H1092       H  0.52751049  0.12332151  0.38335799     0.19150
H1093       H  0.94879210  0.09274322  0.50654586     0.19160
C1094       C  0.96741935  0.25971596  0.46081378    -0.06670
C1095       C  0.49502789  0.30115561  0.46727171    -0.17800
C1096       C  0.49688432  0.33141554  0.44197422     0.10520
C1097       C  0.97210904  0.32023911  0.40803378    -0.06630
C1098       C  0.94276216  0.27892917  0.40301423    -0.17840
C1099       C  0.93957874  0.24885688  0.42930538     0.10550
S1100       S  0.52992104  0.38347805  0.45593647    -0.32800
S1101       S  0.89905329  0.19735459  0.42118256    -0.32810
H1102       H  0.89485068  0.18511065  0.46071037     0.28560
H1103       H  0.50340717  0.39713439  0.44245962     0.28560
H1104       H  0.51583286  0.31004866  0.49193137     0.19150
H1105       H  0.92238647  0.26973955  0.37800760     0.19160
C1106       C  0.97737297  0.13847648  0.17781820    -0.06670
C1107       C  0.49906521  0.11935246  0.16502542    -0.17800
C1108       C  0.49984722  0.08839473  0.18709617     0.10520
C1109       C  0.97961768  0.07678847  0.22354219    -0.06600
C1110       C  0.95759783  0.09571129  0.23608588    -0.17840
C1111       C  0.95523655  0.12534146  0.21329040     0.10550
S1112       S  0.53023432  0.06776169  0.16884981    -0.32800
S1113       S  0.92284295  0.14448934  0.23088007    -0.32810
H1114       H  0.91101284  0.15065257  0.19344377     0.28560
H1115       H  0.49670033  0.02803817  0.16644300     0.28560
H1116       H  0.51656678  0.12941013  0.13811973     0.19150
H1117       H  0.94170381  0.08713254  0.26389180     0.19160
C1118       C  0.98724659  0.32934906  0.23065724    -0.06670
C1119       C  0.51861050  0.31963573  0.23555575    -0.17800
C1120       C  0.52491697  0.29570548  0.20850165     0.10520
C1121       C  0.99806567  0.27894528  0.17639581    -0.06600
C1122       C  0.96863385  0.29081396  0.16983145    -0.17840
C1123       C  0.96384471  0.31672874  0.19586311     0.10550
S1124       S  0.56759828  0.28742336  0.21677278    -0.32800
S1125       S  0.92918985  0.33413028  0.18161627    -0.32810
H1126       H  0.95371104  0.37379448  0.19617019     0.28560
H1127       H  0.57281481  0.28093897  0.17717005     0.28560
H1128       H  0.53838152  0.33043051  0.26098650     0.19150
H1129       H  0.94850839  0.27903108  0.14471895     0.19160
C1130       C  0.78855775  0.49069848  0.46501552    -0.06670
C1131       C  0.79039705  0.45450101  0.46520273    -0.17800
C1132       C  0.81640127  0.44906927  0.43985442     0.10520
C1133       C  0.83992557  0.47956130  0.41185361    -0.06600
C1134       C  0.83917951  0.01658547  0.41316434    -0.17840
C1135       C  0.81466099  0.02273434  0.43975075     0.10550
S1136       S  0.81943502  0.40363498  0.44682222    -0.32800
S1137       S  0.81829408  0.07227142  0.44006717    -0.32810
H1138       H  0.80770445  0.07098727  0.47973389     0.28560
H1139       H  0.86210868  0.42401603  0.44304414     0.28560
H1140       H  0.77103969  0.42998334  0.48505295     0.19150
H1141       H  0.85762414  0.04118448  0.39303841     0.19160
C1142       C  0.59021791  0.47652384  0.41692643    -0.06670
C1143       C  0.60080389  0.00203602  0.44983434    -0.17800
C1144       C  0.63510986  0.01039708  0.47277052     0.10520
C1145       C  0.65789825  0.49076901  0.46414710    -0.06600
C1146       C  0.64643519  0.46458976  0.43182468    -0.17840
C1147       C  0.61416756  0.45836601  0.40745165     0.10550
S1148       S  0.64952546  0.04821739  0.51061630    -0.32800
S1149       S  0.60379353  0.42598571  0.36509403    -0.32810
H1150       H  0.63838887  0.42113671  0.36764715     0.28560
H1151       H  0.69165109  0.06243856  0.50803499     0.28560
H1152       H  0.58358923  0.01727850  0.45644343     0.19150
H1153       H  0.66296301  0.44859541  0.42564019     0.19160
C1154       C  0.83393022  0.47655630  0.23753884    -0.06670
C1155       C  0.81131869  0.44217541  0.21384809    -0.17800
C1156       C  0.78314750  0.44107808  0.18634057     0.10520
C1157       C  0.77848468  0.47570233  0.18087831    -0.06600
C1158       C  0.80106384  0.01009093  0.20420634    -0.17840
C1159       C  0.82741663  0.01033722  0.23330818     0.10550
S1160       S  0.75083608  0.39318100  0.16243599    -0.32800
S1161       S  0.84699038  0.05211170  0.26732504    -0.32810
H1162       H  0.83908040  0.02735484  0.30084178     0.28560
H1163       H  0.74881076  0.40995213  0.12624151     0.28560
H1164       H  0.81471886  0.41544435  0.21747613     0.19150
H1165       H  0.79577058  0.03577234  0.20168187     0.19160
C1166       C  0.63709977  0.45300062  0.17435290    -0.06670
C1167       C  0.61715062  0.97361654  0.16004369    -0.17800
C1168       C  0.58599549  0.97457727  0.18130749     0.10520
C1169       C  0.57664047  0.45779367  0.21948353    -0.06600
C1170       C  0.59510021  0.43540704  0.23282993    -0.17840
C1171       C  0.62329679  0.43099690  0.20999669     0.10550
S1172       S  0.56111525  0.99933637  0.15859991    -0.32800
S1173       S  0.63926859  0.39589198  0.22772676    -0.32810
H1174       H  0.64707400  0.38573876  0.19036229     0.28560
H1175       H  0.52182782  0.96575426  0.16410919     0.28560
H1176       H  0.62652285  0.99016975  0.13251849     0.19150
H1177       H  0.58745660  0.42092464  0.26140602     0.19160
C1178       C  0.81657071  0.29662458  0.46278521    -0.06670
C1179       C  0.80565135  0.30644564  0.42676684    -0.17800
C1180       C  0.83421065  0.33711759  0.40260034     0.10520
C1181       C  0.87520568  0.36106108  0.41570295    -0.06600
C1182       C  0.88626415  0.35185411  0.45212019    -0.17840
C1183       C  0.85779168  0.31920618  0.47519221     0.10550
S1184       S  0.81599817  0.34650823  0.35654875    -0.32800
S1185       S  0.87672246  0.30652994  0.01859743    -0.32810
H1186       H  0.85015924  0.26422589  0.01613524     0.28560
H1187       H  0.77549330  0.31439305  0.35856605     0.28560
H1188       H  0.77405957  0.29018002  0.41765243     0.19150
H1189       H  0.91767124  0.36899441  0.46184826     0.19160
C1190       C  0.63181430  0.11096783  0.40698161    -0.06670
C1191       C  0.62004409  0.13032323  0.43501273    -0.17800
C1192       C  0.64783653  0.15715324  0.46258071     0.10520
C1193       C  0.68820184  0.16377341  0.46348534    -0.06600
C1194       C  0.69912717  0.14234192  0.43734093    -0.17840
C1195       C  0.67211909  0.11707768  0.40868265     0.10550
S1196       S  0.63047491  0.18390855  0.99376393    -0.32800
S1197       S  0.69294393  0.09702654  0.37330878    -0.32810
H1198       H  0.67989767  0.11084885  0.34082483     0.28560
H1199       H  0.66630489  0.22190120  0.99051292     0.28560
H1200       H  0.58936665  0.12579864  0.43457301     0.19150
H1201       H  0.73004317  0.14741699  0.43766107     0.19160
C1202       C  0.87259525  0.36753707  0.22312444    -0.06670
C1203       C  0.86433452  0.37804998  0.18596918    -0.17800
C1204       C  0.83282400  0.34898026  0.16230693     0.10520
C1205       C  0.81053088  0.30765004  0.17494255    -0.06600
C1206       C  0.82061410  0.29716317  0.21105163    -0.17840
C1207       C  0.84953606  0.32628201  0.23587379     0.10550
S1208       S  0.82170386  0.36737179  0.11761293    -0.32800
S1209       S  0.85649486  0.30830226  0.28301992    -0.32810
H1210       H  0.81771715  0.27325910  0.28518386     0.28560
H1211       H  0.77932964  0.34093251  0.11910857     0.28560
H1212       H  0.88117170  0.40948348  0.17612267     0.19150
H1213       H  0.80544136  0.26552240  0.22025013     0.19160
C1214       C  0.67681228  0.17871854  0.17834397    -0.06670
C1215       C  0.66127422  0.18983669  0.21037457    -0.17800
C1216       C  0.63764751  0.16161108  0.23908174     0.10520
C1217       C  0.62587421  0.11987766  0.23461844    -0.06600
C1218       C  0.63976617  0.10811346  0.20177222    -0.17840
C1219       C  0.66544230  0.13700531  0.17381511     0.10550
S1220       S  0.62730209  0.18203625  0.28255607    -0.32800
S1221       S  0.68560105  0.12025795  0.13451600    -0.32810
H1222       H  0.66102573  0.07808282  0.14110312     0.28560
H1223       H  0.63549626  0.15796530  0.30876547     0.28560
H1224       H  0.66972210  0.22152358  0.21442405     0.19150
H1225       H  0.63112301  0.07633362  0.19850076     0.19160
C1226       C  0.70939995  0.21211313  0.65427256     0.02580
C1227       C  0.70985143  0.21072697  0.61323111    -0.13570
C1228       C  0.74476571  0.23840585  0.59160678     0.00080
C1229       C  0.77837979  0.26886147  0.61263222    -0.12100
C1230       C  0.77587089  0.27437926  0.65284397     0.02570
C1231       C  0.74134469  0.24542988  0.67333477    -0.11520
H1232       H  0.68289653  0.18743795  0.59898323     0.08160
H1233       H  0.80719817  0.28818372  0.59848476     0.05690
H1234       H  0.73999526  0.24801159  0.70480715     0.05540
C1235       C  0.72114743  0.19698460  0.98660984     0.02580
C1236       C  0.71860948  0.19959281  0.52734735    -0.13570
C1237       C  0.74712572  0.23485717  0.54784582     0.00080
C1238       C  0.77813509  0.26716774  0.52578429    -0.12100
C1239       C  0.78362133  0.26278987  0.98589545     0.02570
C1240       C  0.75488576  0.22743668  0.96668873    -0.11520
H1241       H  0.69398205  0.17391785  0.54209625     0.08160
H1242       H  0.79797504  0.29639215  0.53886403     0.05690
H1243       H  0.75775097  0.22432355  0.93547820     0.05540
C1244       C  0.74494485  0.47385412  0.65689706     0.02580
C1245       C  0.74851743  0.47972538  0.61620565    -0.13570
C1246       C  0.71466613  0.47372046  0.59320756     0.00080
C1247       C  0.67720698  0.46105181  0.61272999    -0.12100
C1248       C  0.67453377  0.45890808  0.65386489     0.02570
C1249       C  0.70906256  0.46625311  0.67557105    -0.11520
H1250       H  0.77796771  0.48917593  0.60330313     0.08160
H1251       H  0.64970837  0.45301778  0.59646061     0.05690
H1252       H  0.70836400  0.46617336  0.70728379     0.05540
C1253       C  0.75615775  0.49228846  0.98808656     0.02580
C1254       C  0.75127192  0.48288351  0.52824027    -0.13570
C1255       C  0.71855790  0.48159981  0.54958092     0.00080
C1256       C  0.68937719  0.48754582  0.52853505    -0.12100
C1257       C  0.69289696  0.49477208  0.98793548     0.02570
C1258       C  0.72733901  0.49883020  0.96848504    -0.11520
H1259       H  0.77290010  0.47590678  0.54209481     0.08160
H1260       H  0.66305041  0.48552618  0.54290434     0.05690
H1261       H  0.73028198  0.50429363  0.93711244     0.05540
C1262       C  0.49524753  0.24416488  0.65382004     0.02580
C1263       C  0.49256300  0.24276270  0.61268571    -0.13570
C1264       C  0.48391680  0.20681088  0.59229082     0.00080
C1265       C  0.47693354  0.17220396  0.61444496    -0.12100
C1266       C  0.48135015  0.17399458  0.65525009     0.02570
C1267       C  0.49114993  0.21022683  0.67447298    -0.11520
H1268       H  0.49766625  0.26993467  0.59711994     0.08160
H1269       H  0.46751589  0.14329733  0.60037393     0.05690
H1270       H  0.49446038  0.21166345  0.70603276     0.05540
C1271       C  0.97152849  0.22887506  0.98475126     0.02580
C1272       C  0.97324156  0.23111539  0.52586977    -0.13570
C1273       C  0.98199166  0.20477819  0.54835014     0.00080
C1274       C  0.98916557  0.17621024  0.52836984    -0.12100
C1275       C  0.98583716  0.17255576  0.98753719     0.02570
C1276       C  0.97698757  0.19899145  0.96602400    -0.11520
H1277       H  0.96729862  0.25327096  0.53987571     0.08160
H1278       H  0.99808868  0.15689828  0.54413558     0.05690
H1279       H  0.97497576  0.19672784  0.93438241     0.05540
O1280       O  0.51094837  0.38003807  0.86879265    -0.88730
C1281       C  0.59891722  0.08887603  0.76370051     1.11310
O1282       O  0.97983541  0.42767992  0.81983362    -1.36540
O1283       O  0.60754136  0.05896083  0.85933427    -0.90210
O1284       O  0.94399701  0.34238684  0.85814563    -0.90880
O1285       O  0.93790148  0.42468051  0.90347206    -0.79700
O1286       O  0.56008723  0.47017599  0.85573900    -1.01790
C1287       C  0.98223569  0.04371020  0.89440269     1.21350
O1288       O  0.93857183  0.47192074  0.82157594    -1.36680
Mn1289     Mn  0.97992659  0.47115165  0.77784766     1.82050
O1290       O  0.98106737  0.01122779  0.90487642    -0.78780
O1291       O  0.57281989  0.09188495  0.86732976    -0.88170
C1292       C  0.98213682  0.04720048  0.75054428     1.12440
C1293       C  0.60215719  0.08570672  0.87615738     1.07160
O1294       O  0.93547299  0.43031908  0.73688122    -0.79720
O1295       O  0.52319560  0.01210028  0.82058541    -1.33410
O1296       O  0.90030402  0.39473512  0.78397306    -0.98930
C1297       C  0.86511522  0.47502312  0.88055904     1.05880
Mn1298     Mn  0.52803942  0.07035764  0.82306119     1.48570
O1299       O  0.85800418  0.43992932  0.86910942    -0.88120
Mn1300     Mn  0.92567883  0.37115279  0.81686839     1.49560
O1301       O  0.51341813  0.37672199  0.78147014    -0.92000
C1302       C  0.55668636  0.47190067  0.89089219     1.19070
C1303       C  0.98178674  0.35344662  0.76212875     1.11130
Mn1304     Mn  0.98065052  0.46939221  0.86367075     1.80970
O1305       O  0.98270610  0.05252648  0.78578474    -0.97150
Mn1306     Mn  0.53318328  0.42275915  0.82217589     1.49260
C1307       C  0.97607911  0.34975594  0.87683597     1.07650
Mn1308     Mn  0.93695266  0.02720224  0.82214726     1.49930
C1309       C  0.86219389  0.47543993  0.76738906     1.10550
O1310       O  0.90189605  0.39145353  0.85554378    -1.02960
O1311       O  0.57251130  0.09515163  0.78022938    -0.92620
C1312       C  0.90651157  0.39389135  0.89067864     1.21840
O1313       O  0.98232666  0.05013074  0.85937466    -1.03340
O1314       O  0.60355428  0.05832003  0.77185807    -0.90740
O1315       O  0.89255439  0.50881830  0.77831214    -0.90350
O1316       O  0.94699433  0.34972579  0.76971838    -0.90370
Mn1317     Mn  0.58031142  0.01404896  0.81719755     1.47860
O1318       O  0.98135897  0.01537355  0.73892408    -0.78850
C1319       C  0.90385015  0.39935687  0.74891577     1.14890
O1320       O  0.52456747  0.47015862  0.90318580    -0.77580
O1321       O  0.52087134  0.46879561  0.73733018    -0.77190
Mn1322     Mn  0.88050680  0.41914959  0.82252164     1.51060
O1323       O  0.89266977  0.50781481  0.86524758    -0.89550
O1324       O  0.55830202  0.46637490  0.78254637    -0.97070
O1325       O  0.85460864  0.44101206  0.78125382    -0.92090
C1326       C  0.55073102  0.46483235  0.74759347     1.12680
C1327       C  0.98577523  0.07535678  0.92215844    -0.06670
C1328       C  0.51041186  0.11620619  0.91044935    -0.17800
C1329       C  0.51404697  0.14843770  0.93307990     0.10520
C1330       C  0.99016024  0.14016489  0.96720027    -0.06600
C1331       C  0.96690529  0.09948876  0.98011816    -0.17840
C1332       C  0.96476147  0.06705014  0.95829764     0.10550
S1333       S  0.55069165  0.19933782  0.91727473    -0.32800
S1334       S  0.93321560  0.01632293  0.97761230    -0.32810
H1335       H  0.91924669  0.49724348  0.94139549     0.28560
H1336       H  0.55942329  0.21619791  0.95509276     0.28560
H1337       H  0.52751051  0.12332153  0.88335802     0.19150
H1338       H  0.94879208  0.09274319  0.00654586     0.19160
C1339       C  0.96741933  0.25971594  0.96081377    -0.06670
C1340       C  0.49502785  0.30115558  0.96727172    -0.17800
C1341       C  0.49688428  0.33141552  0.94197423     0.10520
C1342       C  0.97210903  0.32023910  0.90803377    -0.06630
C1343       C  0.94276215  0.27892916  0.90301422    -0.17840
C1344       C  0.93957872  0.24885687  0.92930537     0.10550
S1345       S  0.52992100  0.38347803  0.95593649    -0.32800
S1346       S  0.89905328  0.19735458  0.92118253    -0.32810
H1347       H  0.89485066  0.18511064  0.96071034     0.28560
H1348       H  0.50340713  0.39713437  0.94245963     0.28560
H1349       H  0.51583281  0.31004863  0.99193138     0.19150
H1350       H  0.92238647  0.26973955  0.87800758     0.19160
C1351       C  0.97737302  0.13847649  0.67781820    -0.06670
C1352       C  0.49906539  0.11935259  0.66502549    -0.17800
C1353       C  0.49984741  0.08839487  0.68709625     0.10520
C1354       C  0.97961773  0.07678849  0.72354220    -0.06600
C1355       C  0.95759777  0.09571122  0.73608582    -0.17840
C1356       C  0.95523650  0.12534140  0.71329033     0.10550
S1357       S  0.53023472  0.06776201  0.66885004    -0.32800
S1358       S  0.92284279  0.14448918  0.73087990    -0.32810
H1359       H  0.91101277  0.15065244  0.69344357     0.28560
H1360       H  0.49670080  0.02803846  0.66644309     0.28560
H1361       H  0.51656705  0.12941033  0.63811986     0.19150
H1362       H  0.94170367  0.08713241  0.76389170     0.19160
C1363       C  0.98724661  0.32934907  0.73065724    -0.06670
C1364       C  0.51861050  0.31963573  0.73555576    -0.17800
C1365       C  0.52491696  0.29570547  0.70850166     0.10520
C1366       C  0.99806568  0.27894529  0.67639582    -0.06600
C1367       C  0.96863389  0.29081400  0.66983144    -0.17840
C1368       C  0.96384476  0.31672878  0.69586310     0.10550
S1369       S  0.56759825  0.28742332  0.71677280    -0.32800
S1370       S  0.92918994  0.33413038  0.68161623    -0.32810
H1371       H  0.95371114  0.37379457  0.69617019     0.28560
H1372       H  0.57281480  0.28093894  0.67717007     0.28560
H1373       H  0.53838151  0.33043050  0.76098652     0.19150
H1374       H  0.94850845  0.27903114  0.64471892     0.19160
C1375       C  0.78855775  0.49069849  0.96501553    -0.06670
C1376       C  0.79039706  0.45450102  0.96520274    -0.17800
C1377       C  0.81640128  0.44906928  0.93985443     0.10520
C1378       C  0.83992557  0.47956131  0.91185361    -0.06600
C1379       C  0.83917951  0.01658546  0.91316434    -0.17840
C1380       C  0.81466099  0.02273433  0.93975074     0.10550
S1381       S  0.81943505  0.40363501  0.94682224    -0.32800
S1382       S  0.81829407  0.07227142  0.94006716    -0.32810
H1383       H  0.80770445  0.07098727  0.97973388     0.28560
H1384       H  0.86210870  0.42401605  0.94304414     0.28560
H1385       H  0.77103970  0.42998335  0.98505296     0.19150
H1386       H  0.85762413  0.04118447  0.89303840     0.19160
C1387       C  0.59021789  0.47652381  0.91692647    -0.06670
C1388       C  0.60080387  0.00203600  0.94983436    -0.17800
C1389       C  0.63510986  0.01039707  0.97277053     0.10520
C1390       C  0.65789826  0.49076902  0.96414712    -0.06600
C1391       C  0.64643518  0.46458976  0.93182470    -0.17840
C1392       C  0.61416755  0.45836600  0.90745168     0.10550
S1393       S  0.64952546  0.04821737  0.01061631    -0.32800
S1394       S  0.60379351  0.42598568  0.86509407    -0.32810
H1395       H  0.63838888  0.42113672  0.86764717     0.28560
H1396       H  0.69165109  0.06243855  0.00803500     0.28560
H1397       H  0.58358921  0.01727848  0.95644345     0.19150
H1398       H  0.66296301  0.44859541  0.92564021     0.19160
C1399       C  0.83393023  0.47655631  0.73753883    -0.06670
C1400       C  0.81131868  0.44217540  0.71384810    -0.17800
C1401       C  0.78314750  0.44107808  0.68634058     0.10520
C1402       C  0.77848470  0.47570234  0.68087830    -0.06600
C1403       C  0.80106384  0.01009094  0.70420639    -0.17840
C1404       C  0.82741661  0.01033721  0.73330824     0.10550
S1405       S  0.75083604  0.39318099  0.66243604    -0.32800
S1406       S  0.84699030  0.05211164  0.76732515    -0.32810
H1407       H  0.83908034  0.02735474  0.80084186     0.28560
H1408       H  0.74881070  0.40995210  0.62624155     0.28560
H1409       H  0.81471883  0.41544434  0.71747616     0.19150
H1410       H  0.79577056  0.03577233  0.70168194     0.19160
C1411       C  0.63709981  0.45300066  0.67435292    -0.06670
C1412       C  0.61715069  0.97361662  0.66004372    -0.17800
C1413       C  0.58599557  0.97457736  0.68130754     0.10520
C1414       C  0.57664053  0.45779372  0.71948357    -0.06600
C1415       C  0.59510024  0.43540706  0.73282994    -0.17840
C1416       C  0.62329681  0.43099691  0.70999669     0.10550
S1417       S  0.56111541  0.99933655  0.65859999    -0.32800
S1418       S  0.63926859  0.39589196  0.72772673    -0.32810
H1419       H  0.64707400  0.38573877  0.69036225     0.28560
H1420       H  0.52182795  0.96575446  0.66410920     0.28560
H1421       H  0.62652295  0.99016987  0.63251855     0.19150
H1422       H  0.58745660  0.42092462  0.76140601     0.19160
C1423       C  0.81657067  0.29662462  0.96278523    -0.06670
C1424       C  0.80565132  0.30644568  0.92676685    -0.17800
C1425       C  0.83421063  0.33711761  0.90260034     0.10520
C1426       C  0.87520567  0.36106108  0.91570295    -0.06600
C1427       C  0.88626413  0.35185411  0.95212019    -0.17840
C1428       C  0.85779164  0.31920621  0.97519223     0.10550
S1429       S  0.81599817  0.34650825  0.85654875    -0.32800
S1430       S  0.87672251  0.30652991  0.51859740    -0.32810
H1431       H  0.85015932  0.26422587  0.51613519     0.28560
H1432       H  0.77549316  0.31439336  0.85856625     0.28560
H1433       H  0.77405954  0.29018006  0.91765244     0.19150
H1434       H  0.91767122  0.36899440  0.96184827     0.19160
C1435       C  0.63181430  0.11096784  0.90698163    -0.06670
C1436       C  0.62004404  0.13032314  0.93501283    -0.17800
C1437       C  0.64783647  0.15715316  0.96258081     0.10520
C1438       C  0.68820182  0.16377343  0.96348537    -0.06600
C1439       C  0.69912719  0.14234202  0.93734090    -0.17840
C1440       C  0.67211912  0.11707779  0.90868261     0.10550
S1441       S  0.63047504  0.18390875  0.49376376    -0.32800
S1442       S  0.69294402  0.09702683  0.87330861    -0.32810
H1443       H  0.67989757  0.11084904  0.84082473     0.28560
H1444       H  0.66630509  0.22190135  0.49051278     0.28560
H1445       H  0.58936657  0.12579847  0.93457316     0.19150
H1446       H  0.73004322  0.14741716  0.93766099     0.19160
C1447       C  0.87259526  0.36753709  0.72312442    -0.06670
C1448       C  0.86433452  0.37805000  0.68596917    -0.17800
C1449       C  0.83282399  0.34898027  0.66230692     0.10520
C1450       C  0.81053089  0.30765006  0.67494254    -0.06600
C1451       C  0.82061413  0.29716318  0.71105162    -0.17840
C1452       C  0.84953608  0.32628203  0.73587377     0.10550
S1453       S  0.82170381  0.36737181  0.61761295    -0.32800
S1454       S  0.85649486  0.30830227  0.78301990    -0.32810
H1455       H  0.81771701  0.27325932  0.78518395     0.28560
H1456       H  0.77932960  0.34093247  0.61910859     0.28560
H1457       H  0.88117168  0.40948351  0.67612266     0.19150
H1458       H  0.80544139  0.26552242  0.72025012     0.19160
C1459       C  0.67681242  0.17871847  0.67834398    -0.06670
C1460       C  0.66127411  0.18983661  0.71037437    -0.17800
C1461       C  0.63764733  0.16161105  0.73908155     0.10520
C1462       C  0.62587426  0.11987765  0.73461845    -0.06600
C1463       C  0.63976651  0.10811346  0.70177244    -0.17840
C1464       C  0.66544270  0.13700528  0.67381534     0.10550
S1465       S  0.62730153  0.18203627  0.78255561    -0.32800
S1466       S  0.68560185  0.12025799  0.63451652    -0.32810
H1467       H  0.66102691  0.07808287  0.64110391     0.28560
H1468       H  0.63549587  0.15796564  0.80876527     0.28560
H1469       H  0.66972185  0.22152349  0.71442369     0.19150
H1470       H  0.63112354  0.07633365  0.69850113     0.19160
C1471       C  0.70939982  0.71211323  0.15427255     0.02580
C1472       C  0.70985128  0.71072715  0.11323109    -0.13570
C1473       C  0.74476561  0.73840595  0.09160678     0.00080
C1474       C  0.77837973  0.76886151  0.11263224    -0.12100
C1475       C  0.77587084  0.77437929  0.15284398     0.02570
C1476       C  0.74134463  0.74542991  0.17333478    -0.11520
H1477       H  0.68289633  0.68743824  0.09898318     0.08160
H1478       H  0.80719812  0.78818372  0.09848478     0.05690
H1479       H  0.73999524  0.74801160  0.20480717     0.05540
C1480       C  0.72114749  0.69698456  0.48660981     0.02580
C1481       C  0.71860943  0.69959288  0.02734739    -0.13570
C1482       C  0.74712564  0.73485726  0.04784584     0.00080
C1483       C  0.77813501  0.76716783  0.02578431    -0.12100
C1484       C  0.78362140  0.76278981  0.48589543     0.02570
C1485       C  0.75488582  0.72743663  0.46668870    -0.11520
H1486       H  0.69398202  0.67391791  0.04209631     0.08160
H1487       H  0.79797495  0.79639225  0.03886405     0.05690
H1488       H  0.75775102  0.72432350  0.43547817     0.05540
C1489       C  0.74494481  0.97385407  0.15689706     0.02580
C1490       C  0.74851740  0.97972533  0.11620565    -0.13570
C1491       C  0.71466610  0.97372042  0.09320755     0.00080
C1492       C  0.67720694  0.96105177  0.11272997    -0.12100
C1493       C  0.67453373  0.95890803  0.15386488     0.02570
C1494       C  0.70906252  0.96625306  0.17557104    -0.11520
H1495       H  0.77796768  0.98917588  0.10330312     0.08160
H1496       H  0.64970834  0.95301773  0.09646059     0.05690
H1497       H  0.70836396  0.96617332  0.20728378     0.05540
C1498       C  0.75615775  0.99228846  0.48808655     0.02580
C1499       C  0.75127191  0.98288350  0.02824027    -0.13570
C1500       C  0.71855789  0.98159979  0.04958092     0.00080
C1501       C  0.68937718  0.98754581  0.02853505    -0.12100
C1502       C  0.69289696  0.99477208  0.48793547     0.02570
C1503       C  0.72733901  0.99883020  0.46848503    -0.11520
H1504       H  0.77290009  0.97590677  0.04209480     0.08160
H1505       H  0.66305040  0.98552617  0.04290434     0.05690
H1506       H  0.73028198  0.00429364  0.43711243     0.05540
C1507       C  0.49524751  0.74416487  0.15382004     0.02580
C1508       C  0.49256296  0.74276268  0.11268571    -0.13570
C1509       C  0.48391674  0.70681085  0.09229083     0.00080
C1510       C  0.47693347  0.67220393  0.11444497    -0.12100
C1511       C  0.48135010  0.67399455  0.15525010     0.02570
C1512       C  0.49114992  0.71022682  0.17447298    -0.11520
H1513       H  0.49766621  0.76993465  0.09711994     0.08160
H1514       H  0.46751578  0.64329729  0.10037393     0.05690
H1515       H  0.49446041  0.71166345  0.20603275     0.05540
C1516       C  0.97152856  0.72887510  0.48475126     0.02580
C1517       C  0.97324157  0.73111539  0.02586977    -0.13570
C1518       C  0.98199166  0.70477819  0.04835013     0.00080
C1519       C  0.98916559  0.67621025  0.02836984    -0.12100
C1520       C  0.98583723  0.67255580  0.48753717     0.02570
C1521       C  0.97698763  0.69899150  0.46602400    -0.11520
H1522       H  0.96729862  0.75327096  0.03987570     0.08160
H1523       H  0.99808870  0.65689829  0.04413557     0.05690
H1524       H  0.97497580  0.69672788  0.43438240     0.05540
O1525       O  0.51094838  0.88003809  0.36879264    -0.88730
C1526       C  0.59891718  0.58887603  0.26370048     1.11310
O1527       O  0.97983540  0.92767992  0.31983362    -1.36540
O1528       O  0.60754137  0.55896085  0.35933421    -0.90210
O1529       O  0.94399701  0.84238685  0.35814564    -0.90880
O1530       O  0.93790149  0.92468052  0.40347206    -0.79700
O1531       O  0.56008725  0.97017601  0.35573896    -1.01790
C1532       C  0.98223570  0.54371020  0.39440268     1.21350
O1533       O  0.93857182  0.97192074  0.32157594    -1.36680
Mn1534     Mn  0.97992657  0.97115165  0.27784765     1.82050
O1535       O  0.98106738  0.51122779  0.40487641    -0.78780
O1536       O  0.57281987  0.59188493  0.36732976    -0.88170
C1537       C  0.98213680  0.54720047  0.25054428     1.12440
C1538       C  0.60215719  0.58570672  0.37615735     1.07160
O1539       O  0.93547296  0.93031907  0.23688122    -0.79720
O1540       O  0.52319559  0.51210027  0.32058540    -1.33410
O1541       O  0.90030401  0.89473511  0.28397307    -0.98930
C1542       C  0.86511521  0.97502312  0.38055903     1.05880
Mn1543     Mn  0.52803940  0.57035763  0.32306119     1.48570
O1544       O  0.85800418  0.93992933  0.36910942    -0.88120
Mn1545     Mn  0.92567882  0.87115279  0.31686840     1.49560
O1546       O  0.51341811  0.87672198  0.28147013    -0.92000
C1547       C  0.55668637  0.97190070  0.39089215     1.19070
C1548       C  0.98178671  0.85344660  0.26212875     1.11130
Mn1549     Mn  0.98065052  0.96939222  0.36367074     1.80970
O1550       O  0.98270609  0.55252647  0.28578473    -0.97150
Mn1551     Mn  0.53318327  0.92275915  0.32217587     1.49260
C1552       C  0.97607912  0.84975595  0.37683598     1.07650
Mn1553     Mn  0.93695266  0.52720224  0.32214726     1.49930
C1554       C  0.86219388  0.97543993  0.26738905     1.10550
O1555       O  0.90189605  0.89145354  0.35554378    -1.02960
O1556       O  0.57251129  0.59515165  0.28022939    -0.92620
C1557       C  0.90651158  0.89389136  0.39067865     1.21840
O1558       O  0.98232667  0.55013074  0.35937466    -1.03340
O1559       O  0.60355422  0.55832001  0.27185800    -0.90740
O1560       O  0.89255439  0.00881830  0.27831212    -0.90350
O1561       O  0.94699431  0.84972577  0.26971839    -0.90370
Mn1562     Mn  0.58031141  0.51404896  0.31719751     1.47860
O1563       O  0.98135895  0.51537353  0.23892407    -0.78850
C1564       C  0.90385013  0.89935686  0.24891577     1.14890
O1565       O  0.52456749  0.97015864  0.40318577    -0.77580
O1566       O  0.52087130  0.96879558  0.23733015    -0.77190
Mn1567     Mn  0.88050679  0.91914959  0.32252165     1.51060
O1568       O  0.89266975  0.00781481  0.36524757    -0.89550
O1569       O  0.55830198  0.96637489  0.28254633    -0.97070
O1570       O  0.85460864  0.94101206  0.28125382    -0.92090
C1571       C  0.55073098  0.96483232  0.24759344     1.12680
C1572       C  0.98577525  0.57535679  0.42215842    -0.06670
C1573       C  0.51041184  0.61620618  0.41044932    -0.17800
C1574       C  0.51404697  0.64843769  0.43307987     0.10520
C1575       C  0.99016029  0.64016492  0.46720026    -0.06600
C1576       C  0.96690534  0.59948880  0.48011815    -0.17840
C1577       C  0.96476151  0.56705017  0.45829763     0.10550
S1578       S  0.55069165  0.69933781  0.41727468    -0.32800
S1579       S  0.93321562  0.51632297  0.47761230    -0.32810
H1580       H  0.91924668  0.99724346  0.44139548     0.28560
H1581       H  0.55942332  0.71619791  0.45509271     0.28560
H1582       H  0.52751049  0.62332151  0.38335799     0.19150
H1583       H  0.94879213  0.59274324  0.50654586     0.19160
C1584       C  0.96741937  0.75971598  0.46081378    -0.06670
C1585       C  0.49502790  0.80115562  0.46727171    -0.17800
C1586       C  0.49688432  0.83141554  0.44197422     0.10520
C1587       C  0.97210905  0.82023913  0.40803378    -0.06630
C1588       C  0.94276218  0.77892918  0.40301423    -0.17840
C1589       C  0.93957876  0.74885690  0.42930538     0.10550
S1590       S  0.52992104  0.88347806  0.45593647    -0.32800
S1591       S  0.89905331  0.69735460  0.42118256    -0.32810
H1592       H  0.89485071  0.68511066  0.46071037     0.28560
H1593       H  0.50340716  0.89713440  0.44245962     0.28560
H1594       H  0.51583286  0.81004866  0.49193137     0.19150
H1595       H  0.92238649  0.76973956  0.37800759     0.19160
C1596       C  0.97737297  0.63847645  0.17781818    -0.06670
C1597       C  0.49906522  0.61935247  0.16502543    -0.17800
C1598       C  0.49984724  0.58839475  0.18709618     0.10520
C1599       C  0.97961770  0.57678847  0.22354219    -0.06600
C1600       C  0.95759771  0.59571117  0.23608579    -0.17840
C1601       C  0.95523642  0.62534133  0.21329030     0.10550
S1602       S  0.53023438  0.56776173  0.16884985    -0.32800
S1603       S  0.92284266  0.64448907  0.23087983    -0.32810
H1604       H  0.91101267  0.65065234  0.19344349     0.28560
H1605       H  0.49670040  0.52803821  0.16644302     0.28560
H1606       H  0.51656681  0.62941015  0.13811975     0.19150
H1607       H  0.94170359  0.58713234  0.26389166     0.19160
C1608       C  0.98724657  0.82934905  0.23065724    -0.06670
C1609       C  0.51861048  0.81963572  0.23555576    -0.17800
C1610       C  0.52491694  0.79570547  0.20850166     0.10520
C1611       C  0.99806562  0.77894524  0.17639583    -0.06600
C1612       C  0.96863383  0.79081396  0.16983145    -0.17840
C1613       C  0.96384472  0.81672875  0.19586311     0.10550
S1614       S  0.56759825  0.78742333  0.21677279    -0.32800
S1615       S  0.92918990  0.83413036  0.18161624    -0.32810
H1616       H  0.95371111  0.87379454  0.19617019     0.28560
H1617       H  0.57281479  0.78093895  0.17717006     0.28560
H1618       H  0.53838150  0.83043050  0.26098651     0.19150
H1619       H  0.94850839  0.77903110  0.14471894     0.19160
C1620       C  0.78855775  0.99069849  0.46501553    -0.06670
C1621       C  0.79039704  0.95450102  0.46520272    -0.17800
C1622       C  0.81640126  0.94906927  0.43985441     0.10520
C1623       C  0.83992557  0.97956131  0.41185361    -0.06600
C1624       C  0.83917950  0.51658545  0.41316433    -0.17840
C1625       C  0.81466098  0.52273432  0.43975073     0.10550
S1626       S  0.81943498  0.90363497  0.44682219    -0.32800
S1627       S  0.81829404  0.57227140  0.44006713    -0.32810
H1628       H  0.80770442  0.57098726  0.47973386     0.28560
H1629       H  0.86210864  0.92401601  0.44304413     0.28560
H1630       H  0.77103967  0.92998334  0.48505293     0.19150
H1631       H  0.85762412  0.54118445  0.39303839     0.19160
C1632       C  0.59021791  0.97652384  0.41692643    -0.06670
C1633       C  0.60080389  0.50203601  0.44983434    -0.17800
C1634       C  0.63510987  0.51039707  0.47277052     0.10520
C1635       C  0.65789826  0.99076902  0.46414711    -0.06600
C1636       C  0.64643519  0.96458978  0.43182468    -0.17840
C1637       C  0.61416756  0.95836602  0.40745165     0.10550
S1638       S  0.64952547  0.54821738  0.51061630    -0.32800
S1639       S  0.60379353  0.92598572  0.36509404    -0.32810
H1640       H  0.63838887  0.92113669  0.36764717     0.28560
H1641       H  0.69165110  0.56243855  0.50803498     0.28560
H1642       H  0.58358923  0.51727850  0.45644343     0.19150
H1643       H  0.66296302  0.94859542  0.42564019     0.19160
C1644       C  0.83393022  0.97655630  0.23753881    -0.06670
C1645       C  0.81131862  0.94217536  0.21384814    -0.17800
C1646       C  0.78314742  0.94107801  0.18634062     0.10520
C1647       C  0.77848466  0.97570229  0.18087829    -0.06600
C1648       C  0.80106378  0.51009092  0.20420645    -0.17840
C1649       C  0.82741656  0.51033718  0.23330829     0.10550
S1650       S  0.75083591  0.89318089  0.16243615    -0.32800
S1651       S  0.84699020  0.55211157  0.26732526    -0.32810
H1652       H  0.83908027  0.52735464  0.30084194     0.28560
H1653       H  0.74881047  0.90995194  0.12624167     0.28560
H1654       H  0.81471873  0.91544428  0.21747625     0.19150
H1655       H  0.79577047  0.53577230  0.20168204     0.19160
C1656       C  0.63709976  0.95300061  0.17435290    -0.06670
C1657       C  0.61715062  0.47361654  0.16004369    -0.17800
C1658       C  0.58599549  0.47457727  0.18130749     0.10520
C1659       C  0.57664047  0.95779367  0.21948353    -0.06600
C1660       C  0.59510021  0.93540704  0.23282992    -0.17840
C1661       C  0.62329678  0.93099688  0.20999669     0.10550
S1662       S  0.56111524  0.49933635  0.15859991    -0.32800
S1663       S  0.63926857  0.89589196  0.22772675    -0.32810
H1664       H  0.64707398  0.88573874  0.19036228     0.28560
H1665       H  0.52182781  0.46575424  0.16410919     0.28560
H1666       H  0.62652285  0.49016975  0.13251849     0.19150
H1667       H  0.58745659  0.92092463  0.26140602     0.19160
C1668       C  0.81657073  0.79662457  0.46278521    -0.06670
C1669       C  0.80565135  0.80644564  0.42676685    -0.17800
C1670       C  0.83421065  0.83711759  0.40260035     0.10520
C1671       C  0.87520569  0.86106108  0.41570295    -0.06600
C1672       C  0.88626416  0.85185410  0.45212018    -0.17840
C1673       C  0.85779170  0.81920618  0.47519221     0.10550
S1674       S  0.81599817  0.84650823  0.35654877    -0.32800
S1675       S  0.87672244  0.80652995  0.01859743    -0.32810
H1676       H  0.85015923  0.76422590  0.01613526     0.28560
H1677       H  0.77549326  0.81439314  0.35856614     0.28560
H1678       H  0.77405957  0.79018002  0.41765244     0.19150
H1679       H  0.91767126  0.86899441  0.46184825     0.19160
C1680       C  0.63181431  0.61096783  0.40698161    -0.06670
C1681       C  0.62004410  0.63032323  0.43501274    -0.17800
C1682       C  0.64783655  0.65715324  0.46258071     0.10520
C1683       C  0.68820186  0.66377341  0.46348534    -0.06600
C1684       C  0.69912718  0.64234191  0.43734093    -0.17840
C1685       C  0.67211910  0.61707768  0.40868265     0.10550
S1686       S  0.63047489  0.68390851  0.99376397    -0.32800
S1687       S  0.69294393  0.59702654  0.37330877    -0.32810
H1688       H  0.67989767  0.61084885  0.34082482     0.28560
H1689       H  0.66630485  0.72190117  0.99051294     0.28560
H1690       H  0.58936667  0.62579864  0.43457302     0.19150
H1691       H  0.73004318  0.64741698  0.43766106     0.19160
C1692       C  0.87259524  0.86753708  0.22312443    -0.06670
C1693       C  0.86433449  0.87805000  0.18596918    -0.17800
C1694       C  0.83282396  0.84898028  0.16230694     0.10520
C1695       C  0.81053086  0.80765006  0.17494255    -0.06600
C1696       C  0.82061410  0.79716318  0.21105162    -0.17840
C1697       C  0.84953606  0.82628202  0.23587378     0.10550
S1698       S  0.82170378  0.86737183  0.11761298    -0.32800
S1699       S  0.85649485  0.80830225  0.28301990    -0.32810
H1700       H  0.81771707  0.77325921  0.28518390     0.28560
H1701       H  0.77932957  0.84093252  0.11910863     0.28560
H1702       H  0.88117166  0.90948351  0.17612268     0.19150
H1703       H  0.80544136  0.76552241  0.22025012     0.19160
C1704       C  0.67681227  0.67871855  0.17834397    -0.06670
C1705       C  0.66127421  0.68983670  0.21037458    -0.17800
C1706       C  0.63764751  0.66161109  0.23908175     0.10520
C1707       C  0.62587421  0.61987767  0.23461844    -0.06600
C1708       C  0.63976616  0.60811347  0.20177222    -0.17840
C1709       C  0.66544229  0.63700532  0.17381511     0.10550
S1710       S  0.62730210  0.68203625  0.28255608    -0.32800
S1711       S  0.68560103  0.62025796  0.13451598    -0.32810
H1712       H  0.66102569  0.57808283  0.14110310     0.28560
H1713       H  0.63549627  0.65796530  0.30876548     0.28560
H1714       H  0.66972210  0.72152359  0.21442406     0.19150
H1715       H  0.63112300  0.57633363  0.19850075     0.19160
C1716       C  0.70939997  0.71211311  0.65427257     0.02580
C1717       C  0.70985147  0.71072693  0.61323112    -0.13570
C1718       C  0.74476574  0.73840582  0.59160679     0.00080
C1719       C  0.77837981  0.76886147  0.61263223    -0.12100
C1720       C  0.77587090  0.77437926  0.65284397     0.02570
C1721       C  0.74134469  0.74542987  0.67333478    -0.11520
H1722       H  0.68289657  0.68743789  0.59898325     0.08160
H1723       H  0.80719818  0.78818373  0.59848478     0.05690
H1724       H  0.73999525  0.74801159  0.70480716     0.05540
C1725       C  0.72114743  0.69698462  0.98660984     0.02580
C1726       C  0.71860951  0.69959280  0.52734735    -0.13570
C1727       C  0.74712575  0.73485715  0.54784583     0.00080
C1728       C  0.77813512  0.76716772  0.52578430    -0.12100
C1729       C  0.78362132  0.76278989  0.98589546     0.02570
C1730       C  0.75488575  0.72743670  0.96668873    -0.11520
H1731       H  0.69398207  0.67391783  0.54209625     0.08160
H1732       H  0.79797507  0.79639213  0.53886404     0.05690
H1733       H  0.75775097  0.72432356  0.93547820     0.05540
C1734       C  0.74494484  0.97385410  0.65689706     0.02580
C1735       C  0.74851742  0.97972536  0.61620565    -0.13570
C1736       C  0.71466612  0.97372045  0.59320756     0.00080
C1737       C  0.67720697  0.96105181  0.61272999    -0.12100
C1738       C  0.67453376  0.95890807  0.65386489     0.02570
C1739       C  0.70906254  0.96625308  0.67557105    -0.11520
H1740       H  0.77796770  0.98917591  0.60330313     0.08160
H1741       H  0.64970837  0.95301778  0.59646060     0.05690
H1742       H  0.70836398  0.96617333  0.70728379     0.05540
C1743       C  0.75615775  0.99228845  0.98808655     0.02580
C1744       C  0.75127192  0.98288352  0.52824027    -0.13570
C1745       C  0.71855790  0.98159982  0.54958092     0.00080
C1746       C  0.68937719  0.98754583  0.52853506    -0.12100
C1747       C  0.69289696  0.99477207  0.98793547     0.02570
C1748       C  0.72733901  0.99883020  0.96848503    -0.11520
H1749       H  0.77290010  0.97590679  0.54209481     0.08160
H1750       H  0.66305041  0.98552619  0.54290434     0.05690
H1751       H  0.73028198  0.00429364  0.93711243     0.05540
C1752       C  0.49524749  0.74416486  0.65382005     0.02580
C1753       C  0.49256298  0.74276269  0.61268572    -0.13570
C1754       C  0.48391681  0.70681087  0.59229083     0.00080
C1755       C  0.47693357  0.67220395  0.61444496    -0.12100
C1756       C  0.48135015  0.67399456  0.65525009     0.02570
C1757       C  0.49114990  0.71022681  0.67447299    -0.11520
H1758       H  0.49766622  0.76993465  0.59711996     0.08160
H1759       H  0.46751594  0.64329733  0.60037393     0.05690
H1760       H  0.49446032  0.71166340  0.70603277     0.05540
C1761       C  0.97152854  0.72887509  0.98475126     0.02580
C1762       C  0.97324159  0.73111541  0.52586977    -0.13570
C1763       C  0.98199168  0.70477820  0.54835013     0.00080
C1764       C  0.98916560  0.67621027  0.52836984    -0.12100
C1765       C  0.98583722  0.67255579  0.98753718     0.02570
C1766       C  0.97698762  0.69899149  0.96602400    -0.11520
H1767       H  0.96729864  0.75327097  0.53987571     0.08160
H1768       H  0.99808872  0.65689830  0.54413557     0.05690
H1769       H  0.97497580  0.69672787  0.93438241     0.05540
O1770       O  0.51094837  0.88003808  0.86879264    -0.88730
C1771       C  0.59891723  0.58887603  0.76370052     1.11310
O1772       O  0.97983542  0.92767993  0.81983362    -1.36540
O1773       O  0.60754136  0.55896082  0.85933429    -0.90210
O1774       O  0.94399702  0.84238685  0.85814564    -0.90880
O1775       O  0.93790149  0.92468052  0.90347206    -0.79700
O1776       O  0.56008724  0.97017600  0.85573898    -1.01790
C1777       C  0.98223570  0.54371020  0.89440268     1.21350
O1778       O  0.93857183  0.97192074  0.82157594    -1.36680
Mn1779     Mn  0.97992659  0.97115166  0.77784766     1.82050
O1780       O  0.98106737  0.51122779  0.90487641    -0.78780
O1781       O  0.57281989  0.59188495  0.86732976    -0.88170
C1782       C  0.98213681  0.54720048  0.75054428     1.12440
C1783       C  0.60215719  0.58570672  0.87615739     1.07160
O1784       O  0.93547299  0.93031908  0.73688122    -0.79720
O1785       O  0.52319561  0.51210028  0.82058542    -1.33410
O1786       O  0.90030403  0.89473512  0.78397306    -0.98930
C1787       C  0.86511522  0.97502312  0.88055903     1.05880
Mn1788     Mn  0.52803942  0.57035763  0.82306120     1.48570
O1789       O  0.85800419  0.93992933  0.86910942    -0.88120
Mn1790     Mn  0.92567883  0.87115279  0.81686840     1.49560
O1791       O  0.51341811  0.87672199  0.78147013    -0.92000
C1792       C  0.55668636  0.97190068  0.89089217     1.19070
C1793       C  0.98178675  0.85344662  0.76212875     1.11130
Mn1794     Mn  0.98065052  0.96939222  0.86367075     1.80970
O1795       O  0.98270610  0.55252647  0.78578473    -0.97150
Mn1796     Mn  0.53318327  0.92275915  0.82217588     1.49260
C1797       C  0.97607912  0.84975595  0.87683598     1.07650
Mn1798     Mn  0.93695266  0.52720224  0.82214726     1.49930
C1799       C  0.86219389  0.97543993  0.76738905     1.10550
O1800       O  0.90189605  0.89145354  0.85554378    -1.02960
O1801       O  0.57251130  0.59515162  0.78022938    -0.92620
C1802       C  0.90651158  0.89389135  0.89067864     1.21840
O1803       O  0.98232667  0.55013075  0.85937466    -1.03340
O1804       O  0.60355429  0.55832003  0.77185809    -0.90740
O1805       O  0.89255440  0.00881830  0.77831213    -0.90350
O1806       O  0.94699434  0.84972579  0.76971838    -0.90370
Mn1807     Mn  0.58031143  0.51404896  0.81719757     1.47860
O1808       O  0.98135897  0.51537354  0.73892408    -0.78850
C1809       C  0.90385016  0.89935687  0.74891577     1.14890
O1810       O  0.52456748  0.97015863  0.90318579    -0.77580
O1811       O  0.52087133  0.96879560  0.73733017    -0.77190
Mn1812     Mn  0.88050681  0.91914960  0.82252164     1.51060
O1813       O  0.89266977  0.00781481  0.86524757    -0.89550
O1814       O  0.55830200  0.96637490  0.78254635    -0.97070
O1815       O  0.85460865  0.94101206  0.78125382    -0.92090
C1816       C  0.55073101  0.96483235  0.74759346     1.12680
C1817       C  0.98577525  0.57535679  0.92215843    -0.06670
C1818       C  0.51041186  0.61620619  0.91044935    -0.17800
C1819       C  0.51404698  0.64843770  0.93307990     0.10520
C1820       C  0.99016029  0.64016492  0.96720026    -0.06600
C1821       C  0.96690534  0.59948879  0.98011816    -0.17840
C1822       C  0.96476151  0.56705016  0.95829764     0.10550
S1823       S  0.55069166  0.69933782  0.91727472    -0.32800
S1824       S  0.93321563  0.51632296  0.97761230    -0.32810
H1825       H  0.91924668  0.99724345  0.94139548     0.28560
H1826       H  0.55942331  0.71619791  0.95509275     0.28560
H1827       H  0.52751052  0.62332152  0.88335802     0.19150
H1828       H  0.94879213  0.59274323  0.00654586     0.19160
C1829       C  0.96741936  0.75971597  0.96081378    -0.06670
C1830       C  0.49502787  0.80115560  0.96727171    -0.17800
C1831       C  0.49688429  0.83141553  0.94197422     0.10520
C1832       C  0.97210904  0.82023912  0.90803378    -0.06630
C1833       C  0.94276218  0.77892917  0.90301422    -0.17840
C1834       C  0.93957876  0.74885689  0.92930538     0.10550
S1835       S  0.52992100  0.88347804  0.95593648    -0.32800
S1836       S  0.89905331  0.69735459  0.92118254    -0.32810
H1837       H  0.89485070  0.68511065  0.96071036     0.28560
H1838       H  0.50340713  0.89713438  0.94245962     0.28560
H1839       H  0.51583282  0.81004864  0.99193138     0.19150
H1840       H  0.92238649  0.76973956  0.87800759     0.19160
C1841       C  0.97737301  0.63847648  0.67781818    -0.06670
C1842       C  0.49906546  0.61935263  0.66502552    -0.17800
C1843       C  0.49984749  0.58839493  0.68709629     0.10520
C1844       C  0.97961773  0.57678849  0.72354219    -0.06600
C1845       C  0.95759772  0.59571118  0.73608578    -0.17840
C1846       C  0.95523644  0.62534134  0.71329029     0.10550
S1847       S  0.53023489  0.56776214  0.66885014    -0.32800
S1848       S  0.92284268  0.64448907  0.73087981    -0.32810
H1849       H  0.91101270  0.65065235  0.69344346     0.28560
H1850       H  0.49670101  0.52803857  0.66644313     0.28560
H1851       H  0.51656717  0.62941042  0.63811992     0.19150
H1852       H  0.94170358  0.58713233  0.76389164     0.19160
C1853       C  0.98724661  0.82934907  0.73065724    -0.06670
C1854       C  0.51861046  0.81963571  0.73555577    -0.17800
C1855       C  0.52491692  0.79570545  0.70850167     0.10520
C1856       C  0.99806566  0.77894527  0.67639583    -0.06600
C1857       C  0.96863388  0.79081400  0.66983144    -0.17840
C1858       C  0.96384476  0.81672879  0.69586310     0.10550
S1859       S  0.56759821  0.78742329  0.71677281    -0.32800
S1860       S  0.92918997  0.83413041  0.68161623    -0.32810
H1861       H  0.95371117  0.87379459  0.69617019     0.28560
H1862       H  0.57281476  0.78093892  0.67717008     0.28560
H1863       H  0.53838148  0.83043049  0.76098652     0.19150
H1864       H  0.94850844  0.77903114  0.64471893     0.19160
C1865       C  0.78855775  0.99069849  0.96501552    -0.06670
C1866       C  0.79039705  0.95450102  0.96520273    -0.17800
C1867       C  0.81640128  0.94906928  0.93985442     0.10520
C1868       C  0.83992557  0.97956131  0.91185361    -0.06600
C1869       C  0.83917951  0.51658546  0.91316434    -0.17840
C1870       C  0.81466099  0.52273433  0.93975074     0.10550
S1871       S  0.81943503  0.90363500  0.94682223    -0.32800
S1872       S  0.81829406  0.57227141  0.94006715    -0.32810
H1873       H  0.80770444  0.57098727  0.97973388     0.28560
H1874       H  0.86210868  0.92401604  0.94304414     0.28560
H1875       H  0.77103969  0.92998334  0.98505294     0.19150
H1876       H  0.85762412  0.54118446  0.89303839     0.19160
C1877       C  0.59021789  0.97652382  0.91692645    -0.06670
C1878       C  0.60080387  0.50203600  0.94983437    -0.17800
C1879       C  0.63510986  0.51039707  0.97277054     0.10520
C1880       C  0.65789826  0.99076902  0.96414711    -0.06600
C1881       C  0.64643519  0.96458977  0.93182469    -0.17840
C1882       C  0.61416755  0.95836600  0.90745167     0.10550
S1883       S  0.64952547  0.54821738  0.01061631    -0.32800
S1884       S  0.60379351  0.92598569  0.86509406    -0.32810
H1885       H  0.63838888  0.92113672  0.86764716     0.28560
H1886       H  0.69165109  0.56243856  0.00803500     0.28560
H1887       H  0.58358921  0.51727848  0.95644347     0.19150
H1888       H  0.66296302  0.94859542  0.92564020     0.19160
C1889       C  0.83393023  0.97655630  0.73753882    -0.06670
C1890       C  0.81131865  0.94217538  0.71384813    -0.17800
C1891       C  0.78314746  0.94107805  0.68634060     0.10520
C1892       C  0.77848468  0.97570232  0.68087830    -0.06600
C1893       C  0.80106382  0.51009094  0.70420642    -0.17840
C1894       C  0.82741658  0.51033720  0.73330827     0.10550
S1895       S  0.75083597  0.89318094  0.66243610    -0.32800
S1896       S  0.84699023  0.55211159  0.76732523    -0.32810
H1897       H  0.83908029  0.52735466  0.80084192     0.28560
H1898       H  0.74881056  0.90995202  0.62624162     0.28560
H1899       H  0.81471878  0.91544431  0.71747620     0.19150
H1900       H  0.79577052  0.53577233  0.70168200     0.19160
C1901       C  0.63709979  0.95300065  0.67435291    -0.06670
C1902       C  0.61715070  0.47361663  0.66004373    -0.17800
C1903       C  0.58599558  0.47457737  0.68130755     0.10520
C1904       C  0.57664051  0.95779371  0.71948355    -0.06600
C1905       C  0.59510022  0.93540705  0.73282992    -0.17840
C1906       C  0.62329679  0.93099690  0.70999668     0.10550
S1907       S  0.56111541  0.49933655  0.65860001    -0.32800
S1908       S  0.63926856  0.89589195  0.72772672    -0.32810
H1909       H  0.64707398  0.88573875  0.69036224     0.28560
H1910       H  0.52182796  0.46575446  0.66410921     0.28560
H1911       H  0.62652296  0.49016987  0.63251856     0.19150
H1912       H  0.58745658  0.92092461  0.76140600     0.19160
C1913       C  0.81657067  0.79662463  0.96278523    -0.06670
C1914       C  0.80565131  0.80644569  0.92676685    -0.17800
C1915       C  0.83421064  0.83711762  0.90260034     0.10520
C1916       C  0.87520567  0.86106109  0.91570295    -0.06600
C1917       C  0.88626412  0.85185412  0.95212020    -0.17840
C1918       C  0.85779163  0.81920622  0.97519223     0.10550
S1919       S  0.81599817  0.84650825  0.85654874    -0.32800
S1920       S  0.87672254  0.80652990  0.51859738    -0.32810
H1921       H  0.85015935  0.76422585  0.51613517     0.28560
H1922       H  0.77549318  0.81439334  0.85856622     0.28560
H1923       H  0.77405954  0.79018007  0.91765243     0.19150
H1924       H  0.91767122  0.86899441  0.96184827     0.19160
C1925       C  0.63181430  0.61096784  0.90698164    -0.06670
C1926       C  0.62004403  0.63032312  0.93501285    -0.17800
C1927       C  0.64783646  0.65715314  0.96258083     0.10520
C1928       C  0.68820182  0.66377343  0.96348538    -0.06600
C1929       C  0.69912720  0.64234204  0.93734089    -0.17840
C1930       C  0.67211913  0.61707782  0.90868260     0.10550
S1931       S  0.63047506  0.68390875  0.49376377    -0.32800
S1932       S  0.69294404  0.59702689  0.87330858    -0.32810
H1933       H  0.67989755  0.61084908  0.84082471     0.28560
H1934       H  0.66630512  0.72190134  0.49051279     0.28560
H1935       H  0.58936655  0.62579843  0.93457319     0.19150
H1936       H  0.73004323  0.64741720  0.93766096     0.19160
C1937       C  0.87259526  0.86753709  0.72312442    -0.06670
C1938       C  0.86433451  0.87805001  0.68596918    -0.17800
C1939       C  0.83282397  0.84898028  0.66230693     0.10520
C1940       C  0.81053089  0.80765006  0.67494255    -0.06600
C1941       C  0.82061413  0.79716319  0.71105162    -0.17840
C1942       C  0.84953609  0.82628204  0.73587377     0.10550
S1943       S  0.82170377  0.86737181  0.61761297    -0.32800
S1944       S  0.85649488  0.80830227  0.78301990    -0.32810
H1945       H  0.81771700  0.77325935  0.78518397     0.28560
H1946       H  0.77932957  0.84093246  0.61910861     0.28560
H1947       H  0.88117167  0.90948351  0.67612267     0.19150
H1948       H  0.80544140  0.76552243  0.72025013     0.19160
C1949       C  0.67681245  0.67871844  0.67834399    -0.06670
C1950       C  0.66127409  0.68983659  0.71037434    -0.17800
C1951       C  0.63764730  0.66161103  0.73908152     0.10520
C1952       C  0.62587427  0.61987765  0.73461846    -0.06600
C1953       C  0.63976658  0.60811345  0.70177249    -0.17840
C1954       C  0.66544277  0.63700527  0.67381539     0.10550
S1955       S  0.62730142  0.68203626  0.78255553    -0.32800
S1956       S  0.68560200  0.62025799  0.63451663    -0.32810
H1957       H  0.66102713  0.57808287  0.64110407     0.28560
H1958       H  0.63549580  0.65796570  0.80876524     0.28560
H1959       H  0.66972180  0.72152346  0.71442363     0.19150
H1960       H  0.63112364  0.57633365  0.69850121     0.19160
loop_ 
_geom_bond_atom_site_label_1 
_geom_bond_atom_site_label_2 
_geom_bond_distance 
_geom_bond_site_symmetry_2 
_ccdc_geom_bond_type 
C1            C2   1.402       .  A
C1            C6   1.401       .  A
C1          C234   1.495       .  S
C2            C3   1.417       .  A
C2            H7   1.078       .  S
C3            C4   1.417       .  A
C3           C12   1.507       .  S
C4            C5   1.400       .  A
C4            H8   1.078       .  S
C5            C6   1.403       .  A
C5          C225   1.496       .  S
C6            H9   1.083       .  S
C10          C15   1.397       .  A
C10         C256   1.401       .  A
C10         C213   1.484       .  S
C11          C12   1.417       .  A
C11         C255   1.401   1_554  A
C11          H16   1.078       .  S
C12          C13   1.416       .  A
C13         C259   1.401   1_554  A
C13          H17   1.079       .  S
C14          C15   1.400       .  A
C14         C258   1.401       .  A
C14         C198   1.491       .  S
C15          H18   1.084       .  S
C19          C20   1.401       .  A
C19          C24   1.393       .  A
C19         C177   1.476       .  S
C20          C21   1.416       .  A
C20          H25   1.079       .  S
C21          C22   1.416       .  A
C21          C30   1.510       .  S
C22          C23   1.407       .  A
C22          H26   1.078       .  S
C23          C24   1.400       .  A
C23         C186   1.492       .  S
C24          H27   1.083       .  S
C28          C33   1.395       .  A
C28         C274   1.403       .  A
C28         C150   1.482       .  S
C29          C30   1.415       .  A
C29         C273   1.403   1_554  A
C29          H34   1.080       .  S
C30          C31   1.419       .  A
C31         C277   1.404   1_554  A
C31          H35   1.077       .  S
C32          C33   1.400       .  A
C32         C276   1.404       .  A
C32         C165   1.490       .  S
C33          H36   1.085       .  S
C37          C38   1.406       .  A
C37          C42   1.397       .  A
C37        C1121   1.484       .  S
C38          C39   1.416       .  A
C38          H43   1.081       .  S
C39          C40   1.412       .  A
C39        C1028   1.502       .  S
C40          C41   1.400       .  A
C40          H44   1.081       .  S
C41          C42   1.395       .  A
C41        C1106   1.483       .  S
C42          H45   1.082       .  S
C46          C51   1.400       .  A
C46         C292   1.406       .  A
C46         C114   1.486       .  S
C47          C48   1.413       .  A
C47         C291   1.406   1_554  A
C47          H52   1.081       .  S
C48          C49   1.414       .  A
C48        C1019   1.502       .  S
C49         C295   1.400   1_554  A
C49          H53   1.081       .  S
C50          C51   1.400       .  A
C50         C294   1.400       .  A
C50         C105   1.487       .  S
C51          H54   1.083       .  S
O55         Mn81   2.114       .  S
O55        C1062   1.274   1_455  A
C56         C237   1.484       .  S
C56          O89   1.277       .  A
C56          O86   1.267       .  A
O57         Mn64   2.169       .  S
O57         Mn75   2.104       .  S
O57         Mn79   2.167       .  S
O57       Mn1061   2.111       .  S
O58         Mn92   2.072       .  S
O58          C68   1.265       .  A
O59         Mn75   2.086       .  S
O59          C82   1.270       .  A
O60         Mn79   2.142       .  S
O60          C87   1.259       .  A
O61         Mn81   1.941       .  S
O61        Mn582   1.944       .  S
O61          C77   1.212       .  S
C62         C102   1.482       .  S
C62          O65   1.254       .  A
C62          O88   1.218       .  S
O63         Mn64   2.173       .  S
O63         Mn97   2.110       .  S
O63         Mn79   2.173       .  S
O63        Mn573   2.116       .  S
Mn64         O69   2.144       .  S
Mn64        O583   2.105       .  S
Mn64       O1076   2.111       .  S
Mn64       O1540   2.167       .  S
O65        Mn569   2.115   1_545  S
O66         Mn73   2.106       .  S
O66          C68   1.273       .  A
C67         C129   1.481       .  S
C67          O93   1.253       .  A
C67          O80   1.219       .  S
C68         C210   1.489       .  S
O69          C94   1.255       .  A
O70         Mn73   2.115       .  S
O70         Mn92   2.122       .  S
O70       Mn1534   2.167   1_445  S
O70       Mn1549   2.183   1_445  S
O71         Mn75   1.946       .  S
O71         Mn97   1.959       .  S
O71          C94   1.206       .  S
C72         C153   1.498       .  S
C72          O98   1.268       .  A
C72          O74   1.278       .  A
Mn73         O86   2.068       .  S
Mn73       O1068   1.948   1_455  S
Mn73       O1060   1.963   1_455  S
O74         Mn97   2.132       .  S
Mn75         O91   2.135       .  S
Mn75         O85   1.958       .  S
O76         Mn81   2.061       .  S
O76        C1058   1.263   1_455  A
C77         C162   1.481       .  S
C77          O95   1.254       .  A
C78         C138   1.491       .  S
C78          O91   1.276       .  A
C78        O1056   1.263       .  A
Mn79        O555   2.115       .  S
Mn79       O1075   2.121       .  S
Mn79       O1540   2.183       .  S
O80         Mn83   1.950       .  S
O80       Mn1053   1.963       .  S
Mn81       O1037   2.111   1_455  S
Mn81         O99   1.968       .  S
C82         C117   1.488       .  S
C82        O1035   1.274       .  A
Mn83        O580   2.090       .  S
Mn83        O588   2.070       .  S
Mn83        O553   2.116   1_545  S
Mn83         O88   1.956       .  S
C84         C174   1.487       .  S
C84          O90   1.270       .  A
C84         O100   1.272       .  A
O85         Mn97   1.955       .  S
O85          C87   1.208       .  S
C87         C201   1.485       .  S
O88       Mn1053   1.948       .  S
O89         Mn92   2.116       .  S
O90        Mn573   2.090       .  S
Mn92        O551   1.944   1_545  S
Mn92        O589   1.967   1_545  S
O93        Mn554   2.105   1_545  S
C94         C222   1.488       .  S
O95       Mn1059   2.121   1_455  S
O96       Mn1044   2.111   1_455  S
O96         C101   1.255       .  A
Mn97        O100   2.094       .  S
O98        Mn573   2.070       .  S
O99        Mn582   1.967       .  S
O99         C101   1.220       .  S
C101        C189   1.487       .  S
C102        C107   1.416       .  A
C102       C1083   1.406       .  A
C103        C104   1.393       .  A
C103       C1082   1.406   1_455  A
C103        H112   1.083       .  S
C104       C1085   1.411   1_455  A
C104        S108   1.805       .  S
C105        C106   1.408       .  A
C105       C1084   1.411       .  A
C106        C107   1.404       .  A
C106        H113   1.084       .  S
C107        S109   1.803       .  S
S108        H111   1.407       .  S
S109        H600   1.398   1_545  S
H110        S599   1.398       .  S
C114        C119   1.414       .  A
C114       C1095   1.404       .  A
C115        C116   1.400       .  A
C115       C1094   1.404       .  A
C115        H124   1.084   1_655  S
C116       C1097   1.415       .  A
C116        S120   1.796   1_655  S
C117        C118   1.407       .  A
C117       C1096   1.415       .  A
C118        C119   1.399       .  A
C118        H125   1.084       .  S
C119        S121   1.805       .  S
S120        H123   1.407       .  S
S121        H122   1.407       .  S
C126        C131   1.414       .  A
C126       C1107   1.404       .  A
C126       C1021   1.483       .  S
C127        C128   1.398       .  A
C127       C1106   1.404       .  A
C127        H136   1.084   1_655  S
C128       C1109   1.411       .  A
C128        S132   1.789   1_655  S
C129        C130   1.405       .  A
C129       C1108   1.411       .  A
C130        C131   1.396       .  A
C130        H137   1.083       .  S
C131        S133   1.805       .  S
S132        H135   1.407   1_455  S
S133        H134   1.407       .  S
C138        C143   1.414       .  A
C138       C1119   1.410       .  A
C139        C140   1.396       .  A
C139       C1118   1.410   1_455  A
C139        H148   1.084       .  S
C140       C1121   1.412   1_455  A
C140        S144   1.806       .  S
C141        C142   1.404       .  A
C141       C1120   1.412       .  A
C141       C1017   1.484       .  S
C142        C143   1.402       .  A
C142        H149   1.084       .  S
C143        S145   1.793       .  S
S144        H147   1.407       .  S
S145        H146   1.407       .  S
C150        C151   1.401       .  A
C150        C645   1.411       .  A
C151        C152   1.400       .  A
C151        H160   1.084       .  S
C152        C153   1.416       .  A
C152        S156   1.787       .  S
C153        C644   1.412       .  A
C154        C155   1.398       .  A
C154        C643   1.412   1_545  A
C154        H161   1.083       .  S
C155        C640   1.411   1_545  A
C155        S157   1.805       .  S
S156        H159   1.406       .  S
S157        H158   1.407       .  S
C162        C167   1.416       .  A
C162        C653   1.406       .  A
C163        C164   1.406       .  A
C163        C652   1.406   1_545  A
C163        H172   1.084       .  S
C164        C655   1.417   1_545  A
C164        S168   1.803       .  S
C165        C166   1.403       .  A
C165        C654   1.417       .  A
C166        C167   1.393       .  A
C166        H173   1.082       .  S
C167        S169   1.811       .  S
S168        H171   1.406       .  S
S169        H170   1.406       .  S
C174        C175   1.407       .  A
C174        C669   1.418       .  A
C175        C176   1.400       .  A
C175        H184   1.084       .  S
C176        C177   1.412       .  A
C176        S180   1.803       .  S
C177        C668   1.400       .  A
C178        C179   1.399       .  A
C178        C667   1.400   1_545  A
C178        H185   1.084       .  S
C179        C664   1.418   1_545  A
C179        S181   1.801       .  S
S180        H183   1.403       .  S
S181        H182   1.408       .  S
C186        C191   1.415       .  A
C186        C677   1.407       .  A
C187        C188   1.399       .  A
C187        C676   1.407       .  A
C187        H196   1.083       .  S
C188        C679   1.412       .  A
C188        S192   1.790       .  S
C189        C190   1.406       .  A
C189        C678   1.412       .  A
C190        C191   1.396       .  A
C190        H197   1.082       .  S
C191        S193   1.804       .  S
S192        H195   1.407       .  S
S193        H194   1.407       .  S
C198        C199   1.399       .  A
C198        C203   1.419       .  A
C199        C200   1.393       .  A
C199        H208   1.082       .  S
C200        C201   1.424       .  A
C200        S204   1.814       .  S
C201        C202   1.404       .  A
C202        C203   1.406       .  A
C202        H209   1.084       .  S
C203        S450   1.803       .  S
S204        H207   1.406       .  S
S205        C448   1.803   1_554  S
S205        H206   1.407       .  S
C210        C211   1.406       .  A
C210        C215   1.421       .  A
C211        C212   1.402       .  A
C211        H220   1.083       .  S
C212        C213   1.416       .  A
C212        S461   1.803       .  S
C213        C214   1.400       .  A
C214        C215   1.396       .  A
C214        H221   1.084       .  S
C215        S217   1.803       .  S
S216        C457   1.803       .  S
S216        H219   1.406       .  S
S217        H218   1.408       .  S
C222        C223   1.405       .  A
C222        C227   1.423       .  A
C223        C224   1.408       .  A
C223        H232   1.084       .  S
C224        C225   1.422       .  A
C224        S228   1.803       .  S
C225        C226   1.399       .  A
C226        C227   1.391       .  A
C226        H233   1.082       .  S
C227        S229   1.810       .  S
S228        H231   1.406       .  S
S229        H230   1.407       .  S
C234        C235   1.403       .  A
C234        C239   1.421       .  A
C235        C236   1.394       .  A
C235        H244   1.084       .  S
C236        C237   1.418       .  A
C236        S240   1.807       .  S
C237        C238   1.403       .  A
C238        C239   1.409       .  A
C238        H245   1.082       .  S
C239        S241   1.808       .  S
S240        H243   1.408       .  S
S241        H242   1.407       .  S
C246        C247   1.402       .  A
C246        C251   1.401       .  A
C246        C479   1.495       .  S
C247        C248   1.417       .  A
C247        H252   1.078       .  S
C248        C249   1.417       .  A
C248        C257   1.507       .  S
C249        C250   1.400       .  A
C249        H253   1.078       .  S
C250        C251   1.403       .  A
C250        C470   1.496       .  S
C251        H254   1.083       .  S
C255        C260   1.397       .  A
C255        C458   1.484       .  S
C256        C257   1.417       .  A
C256        H261   1.078       .  S
C257        C258   1.416       .  A
C258        H262   1.079       .  S
C259        C260   1.400       .  A
C259        C443   1.491       .  S
C260        H263   1.084       .  S
C264        C265   1.401       .  A
C264        C269   1.393       .  A
C264        C422   1.476       .  S
C265        C266   1.416       .  A
C265        H270   1.079       .  S
C266        C267   1.416       .  A
C266        C275   1.510       .  S
C267        C268   1.407       .  A
C267        H271   1.078       .  S
C268        C269   1.400       .  A
C268        C431   1.492       .  S
C269        H272   1.083       .  S
C273        C278   1.395       .  A
C273        C395   1.482       .  S
C274        C275   1.415       .  A
C274        H279   1.080       .  S
C275        C276   1.419       .  A
C276        H280   1.077       .  S
C277        C278   1.400       .  A
C277        C410   1.490       .  S
C278        H281   1.085       .  S
C282        C283   1.406       .  A
C282        C287   1.397       .  A
C282       C1366   1.484       .  S
C283        C284   1.416       .  A
C283        H288   1.081       .  S
C284        C285   1.412       .  A
C284       C1273   1.502       .  S
C285        C286   1.400       .  A
C285        H289   1.081       .  S
C286        C287   1.395       .  A
C286       C1351   1.483       .  S
C287        H290   1.082       .  S
C291        C296   1.400       .  A
C291        C359   1.486       .  S
C292        C293   1.413       .  A
C292        H297   1.081       .  S
C293        C294   1.414       .  A
C293       C1264   1.502       .  S
C294        H298   1.081       .  S
C295        C296   1.400       .  A
C295        C350   1.487       .  S
C296        H299   1.083       .  S
O300       Mn326   2.114       .  S
O300       C1307   1.274   1_455  A
C301        C482   1.484       .  S
C301        O334   1.277       .  A
C301        O331   1.267       .  A
O302       Mn309   2.169       .  S
O302       Mn320   2.104       .  S
O302       Mn324   2.167       .  S
O302      Mn1306   2.111       .  S
O303       Mn337   2.072       .  S
O303        C313   1.265       .  A
O304       Mn320   2.086       .  S
O304        C327   1.270       .  A
O305       Mn324   2.142       .  S
O305        C332   1.259       .  A
O306       Mn827   1.944       .  S
O306       Mn326   1.941       .  S
O306        C322   1.212       .  S
C307        C347   1.482       .  S
C307        O310   1.254       .  A
C307        O333   1.218       .  S
O308       Mn818   2.116       .  S
O308       Mn309   2.173       .  S
O308       Mn342   2.110       .  S
O308       Mn324   2.173       .  S
Mn309       O828   2.105       .  S
Mn309       O314   2.144       .  S
Mn309      O1321   2.111       .  S
Mn309      O1785   2.167       .  S
O310       Mn814   2.115   1_545  S
O311       Mn318   2.106       .  S
O311        C313   1.273       .  A
C312        C374   1.481       .  S
C312        O338   1.253       .  A
C312        O325   1.219       .  S
C313        C455   1.489       .  S
O314        C339   1.255       .  A
O315      Mn1779   2.167   1_445  S
O315       Mn318   2.115       .  S
O315       Mn337   2.122       .  S
O315      Mn1794   2.183   1_445  S
O316       Mn320   1.946       .  S
O316       Mn342   1.959       .  S
O316        C339   1.206       .  S
C317        C398   1.498       .  S
C317        O343   1.268       .  A
C317        O319   1.278       .  A
Mn318       O331   2.068       .  S
Mn318      O1313   1.948   1_455  S
Mn318      O1305   1.963   1_455  S
O319       Mn342   2.132       .  S
Mn320       O336   2.135       .  S
Mn320       O330   1.958       .  S
O321       Mn326   2.061       .  S
O321       C1303   1.263   1_455  A
C322        C407   1.481       .  S
C322        O340   1.254       .  A
C323        C383   1.491       .  S
C323       O1301   1.263       .  A
C323        O336   1.276       .  A
Mn324       O800   2.115       .  S
Mn324      O1320   2.121       .  S
Mn324      O1785   2.183       .  S
O325      Mn1298   1.963       .  S
O325       Mn328   1.950       .  S
Mn326      O1282   2.111   1_455  S
Mn326       O344   1.968       .  S
C327        C362   1.488       .  S
C327       O1280   1.274       .  A
Mn328       O825   2.090       .  S
Mn328       O833   2.070       .  S
Mn328       O798   2.116   1_545  S
Mn328       O333   1.956       .  S
C329        C419   1.487       .  S
C329        O335   1.270       .  A
C329        O345   1.272       .  A
O330       Mn342   1.955       .  S
O330        C332   1.208       .  S
C332        C446   1.485       .  S
O333      Mn1298   1.948       .  S
O334       Mn337   2.116       .  S
O335       Mn818   2.090       .  S
Mn337       O796   1.944   1_545  S
Mn337       O834   1.967   1_545  S
O338       Mn799   2.105   1_545  S
C339        C467   1.488       .  S
O340      Mn1304   2.121   1_455  S
O341      Mn1289   2.111   1_455  S
O341        C346   1.255       .  A
Mn342       O345   2.094       .  S
O343       Mn818   2.070       .  S
O344       Mn827   1.967       .  S
O344        C346   1.220       .  S
C346        C434   1.487       .  S
C347       C1328   1.406       .  A
C347        C352   1.416       .  A
C348       C1327   1.406   1_455  A
C348        C349   1.393       .  A
C348        H357   1.083       .  S
C349       C1330   1.411   1_455  A
C349        S353   1.805       .  S
C350       C1329   1.411       .  A
C350        C351   1.408       .  A
C351        C352   1.404       .  A
C351        H358   1.084   1_556  S
C352        S354   1.803       .  S
S353        H356   1.407       .  S
S354        H845   1.398   1_545  S
H355        S844   1.398       .  S
C359       C1340   1.404       .  A
C359        C364   1.414       .  A
C360       C1339   1.404       .  A
C360        C361   1.400       .  A
C360        H369   1.084   1_655  S
C361       C1342   1.415       .  A
C361        S365   1.796   1_655  S
C362       C1341   1.415       .  A
C362        C363   1.407       .  A
C363        C364   1.399       .  A
C363        H370   1.084       .  S
C364        S366   1.805       .  S
S365        H368   1.407       .  S
S366        H367   1.407       .  S
C371       C1352   1.404       .  A
C371        C376   1.414       .  A
C371       C1266   1.483       .  S
C372       C1351   1.404       .  A
C372        C373   1.398       .  A
C372        H381   1.084   1_655  S
C373       C1354   1.411       .  A
C373        S377   1.789   1_655  S
C374       C1353   1.411       .  A
C374        C375   1.405       .  A
C375        C376   1.396       .  A
C375        H382   1.083       .  S
C376        S378   1.805       .  S
S377        H380   1.407   1_455  S
S378        H379   1.407       .  S
C383       C1364   1.410       .  A
C383        C388   1.414       .  A
C384       C1363   1.410   1_455  A
C384        C385   1.396       .  A
C384        H393   1.084       .  S
C385       C1366   1.412   1_455  A
C385        S389   1.806       .  S
C386       C1365   1.412       .  A
C386        C387   1.404       .  A
C386       C1262   1.484       .  S
C387        C388   1.402       .  A
C387        H394   1.084       .  S
C388        S390   1.793       .  S
S389        H392   1.407       .  S
S390        H391   1.407       .  S
C395        C396   1.401       .  A
C395        C890   1.411       .  A
C396        C397   1.400       .  A
C396        H405   1.084       .  S
C397        C398   1.416       .  A
C397        S401   1.787       .  S
C398        C889   1.412       .  A
C399        C888   1.412   1_545  A
C399        C400   1.398       .  A
C399        H406   1.083       .  S
C400        C885   1.411   1_545  A
C400        S402   1.805       .  S
S401        H404   1.406       .  S
S402        H403   1.407       .  S
C407        C898   1.406       .  A
C407        C412   1.416       .  A
C408        C897   1.406   1_545  A
C408        C409   1.406       .  A
C408        H417   1.084       .  S
C409        C900   1.417   1_545  A
C409        S413   1.803   1_556  S
C410        C899   1.417       .  A
C410        C411   1.403       .  A
C411        C412   1.393       .  A
C411        H418   1.082       .  S
C412        S414   1.811       .  S
S413        H416   1.406       .  S
S414        H415   1.406       .  S
C419        C420   1.407       .  A
C419        C914   1.418       .  A
C420        C421   1.400       .  A
C420        H429   1.084       .  S
C421        C422   1.412       .  A
C421        S425   1.803       .  S
C422        C913   1.400       .  A
C423        C912   1.400   1_545  A
C423        C424   1.399       .  A
C423        H430   1.084       .  S
C424        C909   1.418   1_545  A
C424        S426   1.801       .  S
S425        H428   1.403       .  S
S426        H427   1.408       .  S
C431        C922   1.407       .  A
C431        C436   1.415       .  A
C432        C921   1.407       .  A
C432        C433   1.399       .  A
C432        H441   1.083       .  S
C433        C924   1.412       .  A
C433        S437   1.790       .  S
C434        C923   1.412       .  A
C434        C435   1.406       .  A
C435        C436   1.396       .  A
C435        H442   1.082       .  S
C436        S438   1.804       .  S
S437        H440   1.407       .  S
S438        H439   1.407       .  S
C443        C444   1.399       .  A
C443        C448   1.419       .  A
C444        C445   1.393       .  A
C444        H453   1.082       .  S
C445        C446   1.424       .  A
C445        S449   1.814       .  S
C446        C447   1.404       .  A
C447        C448   1.406       .  A
C447        H454   1.084       .  S
S449        H452   1.406       .  S
S450        H451   1.407       .  S
C455        C456   1.406       .  A
C455        C460   1.421       .  A
C456        C457   1.402       .  A
C456        H465   1.083       .  S
C457        C458   1.416       .  A
C458        C459   1.400       .  A
C459        C460   1.396       .  A
C459        H466   1.084       .  S
C460        S462   1.803       .  S
S461        H464   1.406       .  S
S462        H463   1.408       .  S
C467        C468   1.405       .  A
C467        C472   1.423       .  A
C468        C469   1.408       .  A
C468        H477   1.084       .  S
C469        C470   1.422       .  A
C469        S473   1.803       .  S
C470        C471   1.399       .  A
C471        C472   1.391       .  A
C471        H478   1.082       .  S
C472        S474   1.810       .  S
S473        H476   1.406       .  S
S474        H475   1.407       .  S
C479        C480   1.403       .  A
C479        C484   1.421       .  A
C480        C481   1.394       .  A
C480        H489   1.084       .  S
C481        C482   1.418       .  A
C481        S485   1.807       .  S
C482        C483   1.403       .  A
C483        C484   1.409       .  A
C483        H490   1.082       .  S
C484        S486   1.808       .  S
S485        H488   1.408       .  S
S486        H487   1.407       .  S
C491        C492   1.402       .  A
C491        C496   1.401       .  A
C491        C724   1.495       .  S
C492        C493   1.417       .  A
C492        H497   1.078       .  S
C493        C494   1.417       .  A
C493        C502   1.507       .  S
C494        C495   1.400       .  A
C494        H498   1.078       .  S
C495        C496   1.403       .  A
C495        C715   1.496       .  S
C496        H499   1.083       .  S
C500        C746   1.401       .  A
C500        C505   1.397       .  A
C500        C703   1.484       .  S
C501        C745   1.401   1_554  A
C501        C502   1.417       .  A
C501        H506   1.078       .  S
C502        C503   1.416       .  A
C503        C749   1.401   1_554  A
C503        H507   1.079       .  S
C504        C748   1.401       .  A
C504        C505   1.400       .  A
C504        C688   1.491       .  S
C505        H508   1.084       .  S
C509        C510   1.401       .  A
C509        C514   1.393       .  A
C509        C667   1.476       .  S
C510        C511   1.416       .  A
C510        H515   1.079       .  S
C511        C512   1.416       .  A
C511        C520   1.510       .  S
C512        C513   1.407       .  A
C512        H516   1.078       .  S
C513        C514   1.400       .  A
C513        C676   1.492       .  S
C514        H517   1.083       .  S
C518        C764   1.403       .  A
C518        C523   1.395       .  A
C518        C640   1.482       .  S
C519        C763   1.403   1_554  A
C519        C520   1.415       .  A
C519        H524   1.080       .  S
C520        C521   1.419       .  A
C521        C767   1.404   1_554  A
C521        H525   1.077       .  S
C522        C766   1.404       .  A
C522        C523   1.400       .  A
C522        C655   1.490       .  S
C523        H526   1.085   1_565  S
C527        C528   1.406       .  A
C527        C532   1.397       .  A
C527       C1611   1.484       .  S
C528        C529   1.416       .  A
C528        H533   1.081       .  S
C529        C530   1.412       .  A
C529       C1518   1.502       .  S
C530        C531   1.400       .  A
C530        H534   1.081       .  S
C531        C532   1.395       .  A
C531       C1596   1.483       .  S
C532        H535   1.082       .  S
C536        C782   1.406       .  A
C536        C541   1.400       .  A
C536        C604   1.486       .  S
C537        C781   1.406   1_554  A
C537        C538   1.413       .  A
C537        H542   1.081       .  S
C538        C539   1.414       .  A
C538       C1509   1.502       .  S
C539        C785   1.400   1_554  A
C539        H543   1.081       .  S
C540        C784   1.400       .  A
C540        C541   1.400       .  A
C540        C595   1.487       .  S
C541        H544   1.083       .  S
O545       Mn571   2.114       .  S
O545       C1552   1.274   1_455  A
C546        C727   1.484       .  S
C546        O579   1.277       .  A
C546        O576   1.267       .  A
O547       Mn554   2.169       .  S
O547       Mn565   2.104       .  S
O547       Mn569   2.167       .  S
O547      Mn1551   2.111       .  S
O548       Mn582   2.072       .  S
O548        C558   1.265       .  A
O549       Mn565   2.086       .  S
O549        C572   1.270       .  A
O550       Mn569   2.142       .  S
O550        C577   1.259       .  A
O551       Mn571   1.941       .  S
O551        C567   1.212       .  S
C552        C592   1.482       .  S
C552        O555   1.254       .  A
C552        O578   1.218       .  S
O553       Mn554   2.173       .  S
O553       Mn587   2.110       .  S
O553       Mn569   2.173       .  S
Mn554       O559   2.144       .  S
Mn554      O1566   2.111       .  S
Mn554      O1050   2.167   1_565  S
O556       Mn563   2.106       .  S
O556        C558   1.273       .  A
C557        C619   1.481       .  S
C557        O583   1.253       .  A
C557        O570   1.219       .  S
C558        C700   1.489       .  S
O559        C584   1.255       .  A
O560      Mn1044   2.167   1_455  S
O560       Mn563   2.115       .  S
O560       Mn582   2.122       .  S
O560      Mn1059   2.183   1_455  S
O561       Mn565   1.946       .  S
O561       Mn587   1.959       .  S
O561        C584   1.206       .  S
C562        C643   1.498       .  S
C562        O588   1.268   1_565  A
C562        O564   1.278       .  A
Mn563       O576   2.068       .  S
Mn563      O1558   1.948   1_455  S
Mn563      O1550   1.963   1_455  S
O564       Mn587   2.132       .  S
Mn565       O581   2.135       .  S
Mn565       O575   1.958       .  S
O566       Mn571   2.061       .  S
O566       C1548   1.263   1_455  A
C567        C652   1.481       .  S
C567        O585   1.254       .  A
C568        C628   1.491       .  S
C568       O1546   1.263       .  A
C568        O581   1.276       .  A
Mn569      O1565   2.121       .  S
Mn569      O1050   2.183   1_565  S
O570      Mn1543   1.963       .  S
O570       Mn573   1.950       .  S
Mn571      O1527   2.111   1_455  S
Mn571       O589   1.968       .  S
C572        C607   1.488       .  S
C572       O1525   1.274       .  A
Mn573       O578   1.956       .  S
C574        C664   1.487       .  S
C574        O580   1.270   1_565  A
C574        O590   1.272       .  A
O575       Mn587   1.955       .  S
O575        C577   1.208       .  S
C577        C691   1.485       .  S
O578      Mn1543   1.948       .  S
O579       Mn582   2.116       .  S
C584        C712   1.488       .  S
O585      Mn1549   2.121   1_455  S
O586      Mn1534   2.111   1_455  S
O586        C591   1.255       .  A
Mn587       O590   2.094       .  S
O589        C591   1.220       .  S
C591        C679   1.487       .  S
C592       C1573   1.406       .  A
C592        C597   1.416       .  A
C593       C1572   1.406   1_455  A
C593        C594   1.393       .  A
C593        H602   1.083       .  S
C594       C1575   1.411   1_455  A
C594        S598   1.805       .  S
C595       C1574   1.411       .  A
C595        C596   1.408       .  A
C596        C597   1.404       .  A
C596        H603   1.084       .  S
C597        S599   1.803       .  S
S598        H601   1.407       .  S
C604       C1585   1.404       .  A
C604        C609   1.414       .  A
C605       C1584   1.404       .  A
C605        C606   1.400       .  A
C605        H614   1.084   1_655  S
C606       C1587   1.415       .  A
C606        S610   1.796   1_655  S
C607       C1586   1.415       .  A
C607        C608   1.407       .  A
C608        C609   1.399       .  A
C608        H615   1.084       .  S
C609        S611   1.805       .  S
S610        H613   1.407       .  S
S611        H612   1.407       .  S
C616       C1597   1.404       .  A
C616        C621   1.414       .  A
C616       C1511   1.483       .  S
C617       C1596   1.404       .  A
C617        C618   1.398       .  A
C617        H626   1.084   1_655  S
C618       C1599   1.411       .  A
C618        S622   1.789   1_655  S
C619       C1598   1.411       .  A
C619        C620   1.405       .  A
C620        C621   1.396       .  A
C620        H627   1.083       .  S
C621        S623   1.805       .  S
S622        H625   1.407   1_455  S
S623        H624   1.407       .  S
C628       C1609   1.410       .  A
C628        C633   1.414       .  A
C629       C1608   1.410   1_455  A
C629        C630   1.396       .  A
C629        H638   1.084       .  S
C630       C1611   1.412   1_455  A
C630        S634   1.806       .  S
C631       C1610   1.412       .  A
C631        C632   1.404       .  A
C631       C1507   1.484       .  S
C632        C633   1.402       .  A
C632        H639   1.084       .  S
C633        S635   1.793       .  S
S634        H637   1.407       .  S
S635        H636   1.407       .  S
C640        C641   1.401       .  A
C641        C642   1.400       .  A
C641        H650   1.084       .  S
C642        C643   1.416       .  A
C642        S646   1.787       .  S
C644        C645   1.398       .  A
C644        H651   1.083       .  S
C645        S647   1.805       .  S
S646        H649   1.406       .  S
S647        H648   1.407       .  S
C652        C657   1.416       .  A
C653        C654   1.406       .  A
C653        H662   1.084       .  S
C654        S658   1.803       .  S
C655        C656   1.403       .  A
C656        C657   1.393       .  A
C656        H663   1.082       .  S
C657        S659   1.811       .  S
S658        H661   1.406       .  S
S659        H660   1.406       .  S
C664        C665   1.407       .  A
C665        C666   1.400       .  A
C665        H674   1.084       .  S
C666        C667   1.412       .  A
C666        S670   1.803       .  S
C668        C669   1.399       .  A
C668        H675   1.084       .  S
C669        S671   1.801       .  S
S670        H673   1.403       .  S
S671        H672   1.408       .  S
C676        C681   1.415       .  A
C677        C678   1.399       .  A
C677        H686   1.083       .  S
C678        S682   1.790       .  S
C679        C680   1.406       .  A
C680        C681   1.396       .  A
C680        H687   1.082       .  S
C681        S683   1.804       .  S
S682        H685   1.407       .  S
S683        H684   1.407       .  S
C688        C689   1.399       .  A
C688        C693   1.419       .  A
C689        C690   1.393       .  A
C689        H698   1.082       .  S
C690        C691   1.424       .  A
C690        S694   1.814       .  S
C691        C692   1.404       .  A
C692        C693   1.406       .  A
C692        H699   1.084       .  S
C693        S940   1.803       .  S
S694        H697   1.406       .  S
S695        C938   1.803   1_554  S
S695        H696   1.407       .  S
C700        C701   1.406       .  A
C700        C705   1.421       .  A
C701        C702   1.402       .  A
C701        H710   1.083       .  S
C702        C703   1.416       .  A
C702        S951   1.803       .  S
C703        C704   1.400       .  A
C704        C705   1.396       .  A
C704        H711   1.084       .  S
C705        S707   1.803       .  S
S706        C947   1.803       .  S
S706        H709   1.406       .  S
S707        H708   1.408       .  S
C712        C713   1.405       .  A
C712        C717   1.423       .  A
C713        C714   1.408       .  A
C713        H722   1.084       .  S
C714        C715   1.422       .  A
C714        S718   1.803       .  S
C715        C716   1.399       .  A
C716        C717   1.391       .  A
C716        H723   1.082       .  S
C717        S719   1.810       .  S
S718        H721   1.406       .  S
S719        H720   1.407       .  S
C724        C725   1.403       .  A
C724        C729   1.421       .  A
C725        C726   1.394       .  A
C725        H734   1.084       .  S
C726        C727   1.418       .  A
C726        S730   1.807       .  S
C727        C728   1.403       .  A
C728        C729   1.409       .  A
C728        H735   1.082       .  S
C729        S731   1.808       .  S
S730        H733   1.408       .  S
S731        H732   1.407       .  S
C736        C737   1.402       .  A
C736        C741   1.401       .  A
C736        C969   1.495       .  S
C737        C738   1.417       .  A
C737        H742   1.078       .  S
C738        C739   1.417       .  A
C738        C747   1.507       .  S
C739        C740   1.400       .  A
C739        H743   1.078       .  S
C740        C741   1.403       .  A
C740        C960   1.496       .  S
C741        H744   1.083       .  S
C745        C750   1.397       .  A
C745        C948   1.484       .  S
C746        C747   1.417       .  A
C746        H751   1.078       .  S
C747        C748   1.416       .  A
C748        H752   1.079       .  S
C749        C750   1.400       .  A
C749        C933   1.491       .  S
C750        H753   1.084       .  S
C754        C755   1.401       .  A
C754        C759   1.393       .  A
C754        C912   1.476       .  S
C755        C756   1.416       .  A
C755        H760   1.079       .  S
C756        C757   1.416       .  A
C756        C765   1.510       .  S
C757        C758   1.407       .  A
C757        H761   1.078       .  S
C758        C759   1.400       .  A
C758        C921   1.492       .  S
C759        H762   1.083       .  S
C763        C768   1.395       .  A
C763        C885   1.482       .  S
C764        C765   1.415       .  A
C764        H769   1.080       .  S
C765        C766   1.419       .  A
C766        H770   1.077       .  S
C767        C768   1.400       .  A
C767        C900   1.490       .  S
C768        H771   1.085   1_565  S
C772        C773   1.406       .  A
C772        C777   1.397       .  A
C772       C1856   1.484       .  S
C773        C774   1.416       .  A
C773        H778   1.081       .  S
C774        C775   1.412       .  A
C774       C1763   1.502       .  S
C775        C776   1.400       .  A
C775        H779   1.081       .  S
C776        C777   1.395       .  A
C776       C1841   1.483       .  S
C777        H780   1.082       .  S
C781        C786   1.400       .  A
C781        C849   1.486       .  S
C782        C783   1.413       .  A
C782        H787   1.081       .  S
C783        C784   1.414       .  A
C783       C1754   1.502       .  S
C784        H788   1.081       .  S
C785        C786   1.400       .  A
C785        C840   1.487       .  S
C786        H789   1.083       .  S
O790       Mn816   2.114       .  S
O790       C1797   1.274   1_455  A
C791        C972   1.484       .  S
C791        O824   1.277       .  A
C791        O821   1.267       .  A
O792       Mn799   2.169       .  S
O792       Mn810   2.104       .  S
O792       Mn814   2.167       .  S
O792      Mn1796   2.111       .  S
O793       Mn827   2.072       .  S
O793        C803   1.265       .  A
O794       Mn810   2.086       .  S
O794        C817   1.270       .  A
O795       Mn814   2.142       .  S
O795        C822   1.259       .  A
O796       Mn816   1.941       .  S
O796        C812   1.212       .  S
C797        C837   1.482       .  S
C797        O800   1.254       .  A
C797        O823   1.218       .  S
O798       Mn799   2.173       .  S
O798       Mn832   2.110       .  S
O798       Mn814   2.173       .  S
Mn799       O804   2.144       .  S
Mn799      O1811   2.111       .  S
Mn799      O1295   2.167   1_565  S
O801       Mn808   2.106       .  S
O801        C803   1.273       .  A
C802        C864   1.481       .  S
C802        O828   1.253       .  A
C802        O815   1.219       .  S
C803        C945   1.489       .  S
O804        C829   1.255       .  A
O805      Mn1289   2.167   1_455  S
O805       Mn808   2.115       .  S
O805       Mn827   2.122       .  S
O805      Mn1304   2.183   1_455  S
O806       Mn810   1.946       .  S
O806       Mn832   1.959       .  S
O806        C829   1.206       .  S
C807        C888   1.498       .  S
C807        O833   1.268   1_565  A
C807        O809   1.278       .  A
Mn808       O821   2.068       .  S
Mn808      O1803   1.948   1_455  S
Mn808      O1795   1.963   1_455  S
O809       Mn832   2.132       .  S
Mn810       O826   2.135       .  S
Mn810       O820   1.958       .  S
O811       Mn816   2.061       .  S
O811       C1793   1.263   1_455  A
C812        C897   1.481       .  S
C812        O830   1.254       .  A
C813        C873   1.491       .  S
C813       O1791   1.263       .  A
C813        O826   1.276       .  A
Mn814      O1810   2.121       .  S
Mn814      O1295   2.183   1_565  S
O815      Mn1788   1.963       .  S
O815       Mn818   1.950       .  S
Mn816      O1772   2.111   1_455  S
Mn816       O834   1.968       .  S
C817        C852   1.488       .  S
C817       O1770   1.274       .  A
Mn818       O823   1.956       .  S
C819        C909   1.487       .  S
C819        O825   1.270   1_565  A
C819        O835   1.272       .  A
O820       Mn832   1.955       .  S
O820        C822   1.208       .  S
C822        C936   1.485       .  S
O823      Mn1788   1.948       .  S
O824       Mn827   2.116       .  S
C829        C957   1.488       .  S
O830      Mn1794   2.121   1_455  S
O831      Mn1779   2.111   1_455  S
O831        C836   1.255       .  A
Mn832       O835   2.094       .  S
O834        C836   1.220       .  S
C836        C924   1.487       .  S
C837       C1818   1.406       .  A
C837        C842   1.416       .  A
C838       C1817   1.406   1_455  A
C838        C839   1.393       .  A
C838        H847   1.083       .  S
C839       C1820   1.411   1_455  A
C839        S843   1.805       .  S
C840       C1819   1.411       .  A
C840        C841   1.408       .  A
C841        C842   1.404       .  A
C841        H848   1.084   1_556  S
C842        S844   1.803       .  S
S843        H846   1.407       .  S
C849       C1830   1.404       .  A
C849        C854   1.414       .  A
C850       C1829   1.404       .  A
C850        C851   1.400       .  A
C850        H859   1.084   1_655  S
C851       C1832   1.415       .  A
C851        S855   1.796   1_655  S
C852       C1831   1.415       .  A
C852        C853   1.407       .  A
C853        C854   1.399       .  A
C853        H860   1.084       .  S
C854        S856   1.805       .  S
S855        H858   1.407       .  S
S856        H857   1.407       .  S
C861       C1842   1.404       .  A
C861        C866   1.414       .  A
C861       C1756   1.483       .  S
C862       C1841   1.404       .  A
C862        C863   1.398       .  A
C862        H871   1.084   1_655  S
C863       C1844   1.411       .  A
C863        S867   1.789   1_655  S
C864       C1843   1.411       .  A
C864        C865   1.405       .  A
C865        C866   1.396       .  A
C865        H872   1.083       .  S
C866        S868   1.805       .  S
S867        H870   1.407   1_455  S
S868        H869   1.407       .  S
C873       C1854   1.410       .  A
C873        C878   1.414       .  A
C874       C1853   1.410   1_455  A
C874        C875   1.396       .  A
C874        H883   1.084       .  S
C875       C1856   1.412   1_455  A
C875        S879   1.806       .  S
C876       C1855   1.412       .  A
C876        C877   1.404       .  A
C876       C1752   1.484       .  S
C877        C878   1.402       .  A
C877        H884   1.084       .  S
C878        S880   1.793       .  S
S879        H882   1.407       .  S
S880        H881   1.407       .  S
C885        C886   1.401       .  A
C886        C887   1.400       .  A
C886        H895   1.084       .  S
C887        C888   1.416       .  A
C887        S891   1.787       .  S
C889        C890   1.398       .  A
C889        H896   1.083       .  S
C890        S892   1.805       .  S
S891        H894   1.406       .  S
S892        H893   1.407       .  S
C897        C902   1.416       .  A
C898        C899   1.406       .  A
C898        H907   1.084       .  S
C899        S903   1.803   1_556  S
C900        C901   1.403       .  A
C901        C902   1.393       .  A
C901        H908   1.082       .  S
C902        S904   1.811       .  S
S903        H906   1.406       .  S
S904        H905   1.406       .  S
C909        C910   1.407       .  A
C910        C911   1.400       .  A
C910        H919   1.084       .  S
C911        C912   1.412       .  A
C911        S915   1.803       .  S
C913        C914   1.399       .  A
C913        H920   1.084       .  S
C914        S916   1.801       .  S
S915        H918   1.403       .  S
S916        H917   1.408       .  S
C921        C926   1.415       .  A
C922        C923   1.399       .  A
C922        H931   1.083       .  S
C923        S927   1.790       .  S
C924        C925   1.406       .  A
C925        C926   1.396       .  A
C925        H932   1.082       .  S
C926        S928   1.804       .  S
S927        H930   1.407       .  S
S928        H929   1.407       .  S
C933        C934   1.399       .  A
C933        C938   1.419       .  A
C934        C935   1.393       .  A
C934        H943   1.082       .  S
C935        C936   1.424       .  A
C935        S939   1.814       .  S
C936        C937   1.404       .  A
C937        C938   1.406       .  A
C937        H944   1.084       .  S
S939        H942   1.406       .  S
S940        H941   1.407       .  S
C945        C946   1.406       .  A
C945        C950   1.421       .  A
C946        C947   1.402       .  A
C946        H955   1.083       .  S
C947        C948   1.416       .  A
C948        C949   1.400       .  A
C949        C950   1.396       .  A
C949        H956   1.084       .  S
C950        S952   1.803       .  S
S951        H954   1.406       .  S
S952        H953   1.408       .  S
C957        C958   1.405       .  A
C957        C962   1.423       .  A
C958        C959   1.408       .  A
C958        H967   1.084       .  S
C959        C960   1.422       .  A
C959        S963   1.803       .  S
C960        C961   1.399       .  A
C961        C962   1.391       .  A
C961        H968   1.082       .  S
C962        S964   1.810       .  S
S963        H966   1.406       .  S
S964        H965   1.407       .  S
C969        C970   1.403       .  A
C969        C974   1.421       .  A
C970        C971   1.394       .  A
C970        H979   1.084       .  S
C971        C972   1.418       .  A
C971        S975   1.807       .  S
C972        C973   1.403       .  A
C973        C974   1.409       .  A
C973        H980   1.082       .  S
C974        S976   1.808       .  S
S975        H978   1.408       .  S
S976        H977   1.407       .  S
C981        C982   1.402       .  A
C981        C986   1.401       .  A
C981       C1214   1.495       .  S
C982        C983   1.417       .  A
C982        H987   1.078       .  S
C983        C984   1.417       .  A
C983        C992   1.507       .  S
C984        C985   1.400       .  A
C984        H988   1.078       .  S
C985        C986   1.403       .  A
C985       C1205   1.496       .  S
C986        H989   1.083       .  S
C990       C1236   1.401       .  A
C990        C995   1.397       .  A
C990       C1193   1.484       .  S
C991       C1235   1.401   1_554  A
C991        C992   1.417       .  A
C991        H996   1.078       .  S
C992        C993   1.416       .  A
C993       C1239   1.401   1_554  A
C993        H997   1.079       .  S
C994       C1238   1.401       .  A
C994        C995   1.400       .  A
C994       C1178   1.491       .  S
C995        H998   1.084       .  S
C999       C1000   1.401       .  A
C999       C1004   1.393       .  A
C999       C1157   1.476       .  S
C1000      C1001   1.416       .  A
C1000      H1005   1.079       .  S
C1001      C1002   1.416       .  A
C1001      C1010   1.510       .  S
C1002      C1003   1.407       .  A
C1002      H1006   1.078       .  S
C1003      C1004   1.400       .  A
C1003      C1166   1.492       .  S
C1004      H1007   1.083       .  S
C1008      C1254   1.403       .  A
C1008      C1013   1.395       .  A
C1008      C1130   1.482       .  S
C1009      C1253   1.403   1_554  A
C1009      C1010   1.415       .  A
C1009      H1014   1.080       .  S
C1010      C1011   1.419       .  A
C1011      C1257   1.404   1_554  A
C1011      H1015   1.077       .  S
C1012      C1256   1.404       .  A
C1012      C1013   1.400       .  A
C1012      C1145   1.490       .  S
C1013      H1016   1.085       .  S
C1017      C1018   1.406       .  A
C1017      C1022   1.397       .  A
C1018      C1019   1.416       .  A
C1018      H1023   1.081       .  S
C1019      C1020   1.412       .  A
C1020      C1021   1.400       .  A
C1020      H1024   1.081       .  S
C1021      C1022   1.395       .  A
C1022      H1025   1.082       .  S
C1026      C1272   1.406       .  A
C1026      C1031   1.400       .  A
C1026      C1094   1.486       .  S
C1027      C1271   1.406   1_554  A
C1027      C1028   1.413       .  A
C1027      H1032   1.081       .  S
C1028      C1029   1.414       .  A
C1029      C1275   1.400   1_554  A
C1029      H1033   1.081       .  S
C1030      C1274   1.400       .  A
C1030      C1031   1.400       .  A
C1030      C1085   1.487       .  S
C1031      H1034   1.083       .  S
O1035     Mn1061   2.114       .  S
C1036      C1217   1.484       .  S
C1036      O1069   1.277       .  A
C1036      O1066   1.267       .  A
O1037     Mn1044   2.169       .  S
O1037     Mn1055   2.104       .  S
O1037     Mn1059   2.167       .  S
O1038     Mn1072   2.072       .  S
O1038      C1048   1.265       .  A
O1039     Mn1055   2.086       .  S
O1039      C1062   1.270       .  A
O1040     Mn1059   2.142       .  S
O1040      C1067   1.259       .  A
O1041     Mn1562   1.944       .  S
O1041     Mn1061   1.941       .  S
O1041      C1057   1.212       .  S
C1042      C1082   1.482       .  S
C1042      O1045   1.254       .  A
C1042      O1068   1.218       .  S
O1043     Mn1553   2.116       .  S
O1043     Mn1044   2.173       .  S
O1043     Mn1077   2.110       .  S
O1043     Mn1059   2.173       .  S
Mn1044     O1563   2.105       .  S
Mn1044     O1049   2.144       .  S
O1045     Mn1549   2.115   1_545  S
O1046     Mn1053   2.106       .  S
O1046      C1048   1.273       .  A
C1047      C1109   1.481       .  S
C1047      O1073   1.253       .  A
C1047      O1060   1.219       .  S
C1048      C1190   1.489       .  S
O1049      C1074   1.255       .  A
O1050     Mn1053   2.115       .  S
O1050     Mn1072   2.122       .  S
O1051     Mn1055   1.946       .  S
O1051     Mn1077   1.959       .  S
O1051      C1074   1.206       .  S
C1052      C1133   1.498       .  S
C1052      O1078   1.268       .  A
C1052      O1054   1.278       .  A
Mn1053     O1066   2.068       .  S
O1054     Mn1077   2.132       .  S
Mn1055     O1071   2.135       .  S
Mn1055     O1065   1.958       .  S
O1056     Mn1061   2.061       .  S
C1057      C1142   1.481       .  S
C1057      O1075   1.254       .  A
C1058      C1118   1.491       .  S
C1058      O1071   1.276       .  A
Mn1059     O1535   2.115       .  S
O1060     Mn1063   1.950       .  S
Mn1061     O1079   1.968       .  S
C1062      C1097   1.488       .  S
Mn1063     O1560   2.090       .  S
Mn1063     O1568   2.070       .  S
Mn1063     O1533   2.116   1_545  S
Mn1063     O1068   1.956       .  S
C1064      C1154   1.487       .  S
C1064      O1070   1.270       .  A
C1064      O1080   1.272       .  A
O1065     Mn1077   1.955       .  S
O1065      C1067   1.208       .  S
C1067      C1181   1.485       .  S
O1069     Mn1072   2.116       .  S
O1070     Mn1553   2.090       .  S
Mn1072     O1531   1.944   1_545  S
Mn1072     O1569   1.967   1_545  S
O1073     Mn1534   2.105   1_545  S
C1074      C1202   1.488       .  S
O1076      C1081   1.255       .  A
Mn1077     O1080   2.094       .  S
O1078     Mn1553   2.070       .  S
O1079     Mn1562   1.967       .  S
O1079      C1081   1.220       .  S
C1081      C1169   1.487       .  S
C1082      C1087   1.416       .  A
C1083      C1084   1.393       .  A
C1083      H1092   1.083       .  S
C1084      S1088   1.805       .  S
C1085      C1086   1.408       .  A
C1086      C1087   1.404       .  A
C1086      H1093   1.084       .  S
C1087      S1089   1.803       .  S
S1088      H1091   1.407       .  S
S1089      H1580   1.398   1_545  S
H1090      S1579   1.398       .  S
C1094      C1099   1.414       .  A
C1095      C1096   1.400       .  A
C1095      H1104   1.084       .  S
C1096      S1100   1.796       .  S
C1097      C1098   1.407       .  A
C1098      C1099   1.399       .  A
C1098      H1105   1.084       .  S
C1099      S1101   1.805       .  S
S1100      H1103   1.407       .  S
S1101      H1102   1.407       .  S
C1106      C1111   1.414       .  A
C1107      C1108   1.398       .  A
C1107      H1116   1.084       .  S
C1108      S1112   1.789       .  S
C1109      C1110   1.405       .  A
C1110      C1111   1.396       .  A
C1110      H1117   1.083       .  S
C1111      S1113   1.805       .  S
S1112      H1115   1.407       .  S
S1113      H1114   1.407       .  S
C1118      C1123   1.414       .  A
C1119      C1120   1.396       .  A
C1119      H1128   1.084       .  S
C1120      S1124   1.806       .  S
C1121      C1122   1.404       .  A
C1122      C1123   1.402       .  A
C1122      H1129   1.084       .  S
C1123      S1125   1.793       .  S
S1124      H1127   1.407       .  S
S1125      H1126   1.407       .  S
C1130      C1131   1.401       .  A
C1130      C1625   1.411       .  A
C1131      C1132   1.400       .  A
C1131      H1140   1.084       .  S
C1132      C1133   1.416       .  A
C1132      S1136   1.787       .  S
C1133      C1624   1.412       .  A
C1134      C1623   1.412   1_545  A
C1134      C1135   1.398       .  A
C1134      H1141   1.083       .  S
C1135      C1620   1.411   1_545  A
C1135      S1137   1.805       .  S
S1136      H1139   1.406       .  S
S1137      H1138   1.407       .  S
C1142      C1633   1.406       .  A
C1142      C1147   1.416       .  A
C1143      C1632   1.406   1_545  A
C1143      C1144   1.406       .  A
C1143      H1152   1.084       .  S
C1144      C1635   1.417   1_545  A
C1144      S1148   1.803       .  S
C1145      C1634   1.417       .  A
C1145      C1146   1.403       .  A
C1146      C1147   1.393       .  A
C1146      H1153   1.082       .  S
C1147      S1149   1.811       .  S
S1148      H1151   1.406       .  S
S1149      H1150   1.406       .  S
C1154      C1155   1.407       .  A
C1154      C1649   1.418       .  A
C1155      C1156   1.400       .  A
C1155      H1164   1.084       .  S
C1156      C1157   1.412       .  A
C1156      S1160   1.803       .  S
C1157      C1648   1.400       .  A
C1158      C1647   1.400   1_545  A
C1158      C1159   1.399       .  A
C1158      H1165   1.084       .  S
C1159      C1644   1.418   1_545  A
C1159      S1161   1.801       .  S
S1160      H1163   1.403       .  S
S1161      H1162   1.408       .  S
C1166      C1657   1.407       .  A
C1166      C1171   1.415       .  A
C1167      C1656   1.407       .  A
C1167      C1168   1.399       .  A
C1167      H1176   1.083       .  S
C1168      C1659   1.412       .  A
C1168      S1172   1.790       .  S
C1169      C1658   1.412       .  A
C1169      C1170   1.406       .  A
C1170      C1171   1.396       .  A
C1170      H1177   1.082       .  S
C1171      S1173   1.804       .  S
S1172      H1175   1.407       .  S
S1173      H1174   1.407       .  S
C1178      C1179   1.399       .  A
C1178      C1183   1.419       .  A
C1179      C1180   1.393       .  A
C1179      H1188   1.082       .  S
C1180      C1181   1.424       .  A
C1180      S1184   1.814       .  S
C1181      C1182   1.404       .  A
C1182      C1183   1.406       .  A
C1182      H1189   1.084       .  S
C1183      S1430   1.803       .  S
S1184      H1187   1.406       .  S
S1185      C1428   1.803   1_554  S
S1185      H1186   1.407       .  S
C1190      C1191   1.406       .  A
C1190      C1195   1.421       .  A
C1191      C1192   1.402       .  A
C1191      H1200   1.083       .  S
C1192      C1193   1.416       .  A
C1192      S1441   1.803       .  S
C1193      C1194   1.400       .  A
C1194      C1195   1.396       .  A
C1194      H1201   1.084       .  S
C1195      S1197   1.803       .  S
S1196      C1437   1.803       .  S
S1196      H1199   1.406       .  S
S1197      H1198   1.408       .  S
C1202      C1203   1.405       .  A
C1202      C1207   1.423       .  A
C1203      C1204   1.408       .  A
C1203      H1212   1.084       .  S
C1204      C1205   1.422       .  A
C1204      S1208   1.803       .  S
C1205      C1206   1.399       .  A
C1206      C1207   1.391       .  A
C1206      H1213   1.082       .  S
C1207      S1209   1.810       .  S
S1208      H1211   1.406       .  S
S1209      H1210   1.407       .  S
C1214      C1215   1.403       .  A
C1214      C1219   1.421       .  A
C1215      C1216   1.394       .  A
C1215      H1224   1.084       .  S
C1216      C1217   1.418       .  A
C1216      S1220   1.807       .  S
C1217      C1218   1.403       .  A
C1218      C1219   1.409       .  A
C1218      H1225   1.082       .  S
C1219      S1221   1.808       .  S
S1220      H1223   1.408       .  S
S1221      H1222   1.407       .  S
C1226      C1227   1.402       .  A
C1226      C1231   1.401       .  A
C1226      C1459   1.495       .  S
C1227      C1228   1.417       .  A
C1227      H1232   1.078       .  S
C1228      C1229   1.417       .  A
C1228      C1237   1.507       .  S
C1229      C1230   1.400       .  A
C1229      H1233   1.078       .  S
C1230      C1231   1.403       .  A
C1230      C1450   1.496       .  S
C1231      H1234   1.083       .  S
C1235      C1240   1.397       .  A
C1235      C1438   1.484       .  S
C1236      C1237   1.417       .  A
C1236      H1241   1.078       .  S
C1237      C1238   1.416       .  A
C1238      H1242   1.079       .  S
C1239      C1240   1.400       .  A
C1239      C1423   1.491       .  S
C1240      H1243   1.084       .  S
C1244      C1245   1.401       .  A
C1244      C1249   1.393       .  A
C1244      C1402   1.476       .  S
C1245      C1246   1.416       .  A
C1245      H1250   1.079       .  S
C1246      C1247   1.416       .  A
C1246      C1255   1.510       .  S
C1247      C1248   1.407       .  A
C1247      H1251   1.078       .  S
C1248      C1249   1.400       .  A
C1248      C1411   1.492       .  S
C1249      H1252   1.083       .  S
C1253      C1258   1.395       .  A
C1253      C1375   1.482       .  S
C1254      C1255   1.415       .  A
C1254      H1259   1.080       .  S
C1255      C1256   1.419       .  A
C1256      H1260   1.077       .  S
C1257      C1258   1.400       .  A
C1257      C1390   1.490       .  S
C1258      H1261   1.085       .  S
C1262      C1263   1.406       .  A
C1262      C1267   1.397       .  A
C1263      C1264   1.416       .  A
C1263      H1268   1.081       .  S
C1264      C1265   1.412       .  A
C1265      C1266   1.400       .  A
C1265      H1269   1.081       .  S
C1266      C1267   1.395       .  A
C1267      H1270   1.082       .  S
C1271      C1276   1.400       .  A
C1271      C1339   1.486       .  S
C1272      C1273   1.413       .  A
C1272      H1277   1.081       .  S
C1273      C1274   1.414       .  A
C1274      H1278   1.081       .  S
C1275      C1276   1.400       .  A
C1275      C1330   1.487       .  S
C1276      H1279   1.083       .  S
O1280     Mn1306   2.114       .  S
C1281      C1462   1.484       .  S
C1281      O1314   1.277       .  A
C1281      O1311   1.267       .  A
O1282     Mn1289   2.169       .  S
O1282     Mn1300   2.104       .  S
O1282     Mn1304   2.167       .  S
O1283     Mn1317   2.072       .  S
O1283      C1293   1.265       .  A
O1284     Mn1300   2.086       .  S
O1284      C1307   1.270       .  A
O1285     Mn1304   2.142       .  S
O1285      C1312   1.259       .  A
O1286     Mn1807   1.944       .  S
O1286     Mn1306   1.941       .  S
O1286      C1302   1.212       .  S
C1287      C1327   1.482       .  S
C1287      O1290   1.254       .  A
C1287      O1313   1.218       .  S
O1288     Mn1798   2.116       .  S
O1288     Mn1289   2.173       .  S
O1288     Mn1322   2.110       .  S
O1288     Mn1304   2.173       .  S
Mn1289     O1808   2.105       .  S
Mn1289     O1294   2.144       .  S
O1290     Mn1794   2.115   1_545  S
O1291     Mn1298   2.106       .  S
O1291      C1293   1.273       .  A
C1292      C1354   1.481       .  S
C1292      O1318   1.253       .  A
C1292      O1305   1.219       .  S
C1293      C1435   1.489       .  S
O1294      C1319   1.255       .  A
O1295     Mn1298   2.115       .  S
O1295     Mn1317   2.122       .  S
O1296     Mn1300   1.946       .  S
O1296     Mn1322   1.959       .  S
O1296      C1319   1.206       .  S
C1297      C1378   1.498       .  S
C1297      O1323   1.268       .  A
C1297      O1299   1.278       .  A
Mn1298     O1311   2.068       .  S
O1299     Mn1322   2.132       .  S
Mn1300     O1316   2.135       .  S
Mn1300     O1310   1.958       .  S
O1301     Mn1306   2.061       .  S
C1302      C1387   1.481       .  S
C1302      O1320   1.254       .  A
C1303      C1363   1.491       .  S
C1303      O1316   1.276       .  A
Mn1304     O1780   2.115       .  S
O1305     Mn1308   1.950       .  S
Mn1306     O1324   1.968       .  S
C1307      C1342   1.488       .  S
Mn1308     O1805   2.090       .  S
Mn1308     O1813   2.070       .  S
Mn1308     O1778   2.116   1_545  S
Mn1308     O1313   1.956       .  S
C1309      C1399   1.487       .  S
C1309      O1315   1.270       .  A
C1309      O1325   1.272       .  A
O1310     Mn1322   1.955       .  S
O1310      C1312   1.208       .  S
C1312      C1426   1.485       .  S
O1314     Mn1317   2.116       .  S
O1315     Mn1798   2.090       .  S
Mn1317     O1776   1.944   1_545  S
Mn1317     O1814   1.967   1_545  S
O1318     Mn1779   2.105   1_545  S
C1319      C1447   1.488       .  S
O1321      C1326   1.255       .  A
Mn1322     O1325   2.094       .  S
O1323     Mn1798   2.070       .  S
O1324     Mn1807   1.967       .  S
O1324      C1326   1.220       .  S
C1326      C1414   1.487       .  S
C1327      C1332   1.416       .  A
C1328      C1329   1.393       .  A
C1328      H1337   1.083       .  S
C1329      S1333   1.805       .  S
C1330      C1331   1.408       .  A
C1331      C1332   1.404       .  A
C1331      H1338   1.084   1_556  S
C1332      S1334   1.803       .  S
S1333      H1336   1.407       .  S
S1334      H1825   1.398   1_545  S
H1335      S1824   1.398       .  S
C1339      C1344   1.414       .  A
C1340      C1341   1.400       .  A
C1340      H1349   1.084       .  S
C1341      S1345   1.796       .  S
C1342      C1343   1.407       .  A
C1343      C1344   1.399       .  A
C1343      H1350   1.084       .  S
C1344      S1346   1.805       .  S
S1345      H1348   1.407       .  S
S1346      H1347   1.407       .  S
C1351      C1356   1.414       .  A
C1352      C1353   1.398       .  A
C1352      H1361   1.084       .  S
C1353      S1357   1.789       .  S
C1354      C1355   1.405       .  A
C1355      C1356   1.396       .  A
C1355      H1362   1.083       .  S
C1356      S1358   1.805       .  S
S1357      H1360   1.407       .  S
S1358      H1359   1.407       .  S
C1363      C1368   1.414       .  A
C1364      C1365   1.396       .  A
C1364      H1373   1.084       .  S
C1365      S1369   1.806       .  S
C1366      C1367   1.404       .  A
C1367      C1368   1.402       .  A
C1367      H1374   1.084       .  S
C1368      S1370   1.793       .  S
S1369      H1372   1.407       .  S
S1370      H1371   1.407       .  S
C1375      C1376   1.401       .  A
C1375      C1870   1.411       .  A
C1376      C1377   1.400       .  A
C1376      H1385   1.084       .  S
C1377      C1378   1.416       .  A
C1377      S1381   1.787       .  S
C1378      C1869   1.412       .  A
C1379      C1868   1.412   1_545  A
C1379      C1380   1.398       .  A
C1379      H1386   1.083       .  S
C1380      C1865   1.411   1_545  A
C1380      S1382   1.805       .  S
S1381      H1384   1.406       .  S
S1382      H1383   1.407       .  S
C1387      C1878   1.406       .  A
C1387      C1392   1.416       .  A
C1388      C1877   1.406   1_545  A
C1388      C1389   1.406       .  A
C1388      H1397   1.084       .  S
C1389      C1880   1.417   1_545  A
C1389      S1393   1.803   1_556  S
C1390      C1879   1.417       .  A
C1390      C1391   1.403       .  A
C1391      C1392   1.393       .  A
C1391      H1398   1.082       .  S
C1392      S1394   1.811       .  S
S1393      H1396   1.406       .  S
S1394      H1395   1.406       .  S
C1399      C1400   1.407       .  A
C1399      C1894   1.418       .  A
C1400      C1401   1.400       .  A
C1400      H1409   1.084       .  S
C1401      C1402   1.412       .  A
C1401      S1405   1.803       .  S
C1402      C1893   1.400       .  A
C1403      C1892   1.400   1_545  A
C1403      C1404   1.399       .  A
C1403      H1410   1.084       .  S
C1404      C1889   1.418   1_545  A
C1404      S1406   1.801       .  S
S1405      H1408   1.403       .  S
S1406      H1407   1.408       .  S
C1411      C1902   1.407       .  A
C1411      C1416   1.415       .  A
C1412      C1901   1.407       .  A
C1412      C1413   1.399       .  A
C1412      H1421   1.083       .  S
C1413      C1904   1.412       .  A
C1413      S1417   1.790       .  S
C1414      C1903   1.412       .  A
C1414      C1415   1.406       .  A
C1415      C1416   1.396       .  A
C1415      H1422   1.082       .  S
C1416      S1418   1.804       .  S
S1417      H1420   1.407       .  S
S1418      H1419   1.407       .  S
C1423      C1424   1.399       .  A
C1423      C1428   1.419       .  A
C1424      C1425   1.393       .  A
C1424      H1433   1.082       .  S
C1425      C1426   1.424       .  A
C1425      S1429   1.814       .  S
C1426      C1427   1.404       .  A
C1427      C1428   1.406       .  A
C1427      H1434   1.084       .  S
S1429      H1432   1.406       .  S
S1430      H1431   1.407       .  S
C1435      C1436   1.406       .  A
C1435      C1440   1.421       .  A
C1436      C1437   1.402       .  A
C1436      H1445   1.083       .  S
C1437      C1438   1.416       .  A
C1438      C1439   1.400       .  A
C1439      C1440   1.396       .  A
C1439      H1446   1.084       .  S
C1440      S1442   1.803       .  S
S1441      H1444   1.406       .  S
S1442      H1443   1.408       .  S
C1447      C1448   1.405       .  A
C1447      C1452   1.423       .  A
C1448      C1449   1.408       .  A
C1448      H1457   1.084       .  S
C1449      C1450   1.422       .  A
C1449      S1453   1.803       .  S
C1450      C1451   1.399       .  A
C1451      C1452   1.391       .  A
C1451      H1458   1.082       .  S
C1452      S1454   1.810       .  S
S1453      H1456   1.406       .  S
S1454      H1455   1.407       .  S
C1459      C1460   1.403       .  A
C1459      C1464   1.421       .  A
C1460      C1461   1.394       .  A
C1460      H1469   1.084       .  S
C1461      C1462   1.418       .  A
C1461      S1465   1.807       .  S
C1462      C1463   1.403       .  A
C1463      C1464   1.409       .  A
C1463      H1470   1.082       .  S
C1464      S1466   1.808       .  S
S1465      H1468   1.408       .  S
S1466      H1467   1.407       .  S
C1471      C1472   1.402       .  A
C1471      C1476   1.401       .  A
C1471      C1704   1.495       .  S
C1472      C1473   1.417       .  A
C1472      H1477   1.078       .  S
C1473      C1474   1.417       .  A
C1473      C1482   1.507       .  S
C1474      C1475   1.400       .  A
C1474      H1478   1.078       .  S
C1475      C1476   1.403       .  A
C1475      C1695   1.496       .  S
C1476      H1479   1.083       .  S
C1480      C1726   1.401       .  A
C1480      C1485   1.397       .  A
C1480      C1683   1.484       .  S
C1481      C1725   1.401   1_554  A
C1481      C1482   1.417       .  A
C1481      H1486   1.078       .  S
C1482      C1483   1.416       .  A
C1483      C1729   1.401   1_554  A
C1483      H1487   1.079       .  S
C1484      C1728   1.401       .  A
C1484      C1485   1.400       .  A
C1484      C1668   1.491       .  S
C1485      H1488   1.084       .  S
C1489      C1490   1.401       .  A
C1489      C1494   1.393       .  A
C1489      C1647   1.476       .  S
C1490      C1491   1.416       .  A
C1490      H1495   1.079       .  S
C1491      C1492   1.416       .  A
C1491      C1500   1.510       .  S
C1492      C1493   1.407       .  A
C1492      H1496   1.078       .  S
C1493      C1494   1.400       .  A
C1493      C1656   1.492       .  S
C1494      H1497   1.083       .  S
C1498      C1744   1.403       .  A
C1498      C1503   1.395       .  A
C1498      C1620   1.482       .  S
C1499      C1743   1.403   1_554  A
C1499      C1500   1.415       .  A
C1499      H1504   1.080       .  S
C1500      C1501   1.419       .  A
C1501      C1747   1.404   1_554  A
C1501      H1505   1.077       .  S
C1502      C1746   1.404       .  A
C1502      C1503   1.400       .  A
C1502      C1635   1.490       .  S
C1503      H1506   1.085   1_565  S
C1507      C1508   1.406       .  A
C1507      C1512   1.397       .  A
C1508      C1509   1.416       .  A
C1508      H1513   1.081       .  S
C1509      C1510   1.412       .  A
C1510      C1511   1.400       .  A
C1510      H1514   1.081       .  S
C1511      C1512   1.395       .  A
C1512      H1515   1.082       .  S
C1516      C1762   1.406       .  A
C1516      C1521   1.400       .  A
C1516      C1584   1.486       .  S
C1517      C1761   1.406   1_554  A
C1517      C1518   1.413       .  A
C1517      H1522   1.081       .  S
C1518      C1519   1.414       .  A
C1519      C1765   1.400   1_554  A
C1519      H1523   1.081       .  S
C1520      C1764   1.400       .  A
C1520      C1521   1.400       .  A
C1520      C1575   1.487       .  S
C1521      H1524   1.083       .  S
O1525     Mn1551   2.114       .  S
C1526      C1707   1.484       .  S
C1526      O1559   1.277       .  A
C1526      O1556   1.267       .  A
O1527     Mn1534   2.169       .  S
O1527     Mn1545   2.104       .  S
O1527     Mn1549   2.167       .  S
O1528     Mn1562   2.072       .  S
O1528      C1538   1.265       .  A
O1529     Mn1545   2.086       .  S
O1529      C1552   1.270       .  A
O1530     Mn1549   2.142       .  S
O1530      C1557   1.259       .  A
O1531     Mn1551   1.941       .  S
O1531      C1547   1.212       .  S
C1532      C1572   1.482       .  S
C1532      O1535   1.254       .  A
C1532      O1558   1.218       .  S
O1533     Mn1534   2.173       .  S
O1533     Mn1567   2.110       .  S
O1533     Mn1549   2.173       .  S
Mn1534     O1539   2.144       .  S
O1536     Mn1543   2.106       .  S
O1536      C1538   1.273       .  A
C1537      C1599   1.481       .  S
C1537      O1563   1.253       .  A
C1537      O1550   1.219       .  S
C1538      C1680   1.489       .  S
O1539      C1564   1.255       .  A
O1540     Mn1543   2.115       .  S
O1540     Mn1562   2.122       .  S
O1541     Mn1545   1.946       .  S
O1541     Mn1567   1.959       .  S
O1541      C1564   1.206       .  S
C1542      C1623   1.498       .  S
C1542      O1568   1.268   1_565  A
C1542      O1544   1.278       .  A
Mn1543     O1556   2.068       .  S
O1544     Mn1567   2.132       .  S
Mn1545     O1561   2.135       .  S
Mn1545     O1555   1.958       .  S
O1546     Mn1551   2.061       .  S
C1547      C1632   1.481       .  S
C1547      O1565   1.254       .  A
C1548      C1608   1.491       .  S
C1548      O1561   1.276       .  A
O1550     Mn1553   1.950       .  S
Mn1551     O1569   1.968       .  S
C1552      C1587   1.488       .  S
Mn1553     O1558   1.956       .  S
C1554      C1644   1.487       .  S
C1554      O1560   1.270   1_565  A
C1554      O1570   1.272       .  A
O1555     Mn1567   1.955       .  S
O1555      C1557   1.208       .  S
C1557      C1671   1.485       .  S
O1559     Mn1562   2.116       .  S
C1564      C1692   1.488       .  S
O1566      C1571   1.255       .  A
Mn1567     O1570   2.094       .  S
O1569      C1571   1.220       .  S
C1571      C1659   1.487       .  S
C1572      C1577   1.416       .  A
C1573      C1574   1.393       .  A
C1573      H1582   1.083       .  S
C1574      S1578   1.805       .  S
C1575      C1576   1.408       .  A
C1576      C1577   1.404       .  A
C1576      H1583   1.084       .  S
C1577      S1579   1.803       .  S
S1578      H1581   1.407       .  S
C1584      C1589   1.414       .  A
C1585      C1586   1.400       .  A
C1585      H1594   1.084       .  S
C1586      S1590   1.796       .  S
C1587      C1588   1.407       .  A
C1588      C1589   1.399       .  A
C1588      H1595   1.084       .  S
C1589      S1591   1.805       .  S
S1590      H1593   1.407       .  S
S1591      H1592   1.407       .  S
C1596      C1601   1.414       .  A
C1597      C1598   1.398       .  A
C1597      H1606   1.084       .  S
C1598      S1602   1.789       .  S
C1599      C1600   1.405       .  A
C1600      C1601   1.396       .  A
C1600      H1607   1.083       .  S
C1601      S1603   1.805       .  S
S1602      H1605   1.407       .  S
S1603      H1604   1.407       .  S
C1608      C1613   1.414       .  A
C1609      C1610   1.396       .  A
C1609      H1618   1.084       .  S
C1610      S1614   1.806       .  S
C1611      C1612   1.404       .  A
C1612      C1613   1.402       .  A
C1612      H1619   1.084       .  S
C1613      S1615   1.793       .  S
S1614      H1617   1.407       .  S
S1615      H1616   1.407       .  S
C1620      C1621   1.401       .  A
C1621      C1622   1.400       .  A
C1621      H1630   1.084       .  S
C1622      C1623   1.416       .  A
C1622      S1626   1.787       .  S
C1624      C1625   1.398       .  A
C1624      H1631   1.083       .  S
C1625      S1627   1.805       .  S
S1626      H1629   1.406       .  S
S1627      H1628   1.407       .  S
C1632      C1637   1.416       .  A
C1633      C1634   1.406       .  A
C1633      H1642   1.084       .  S
C1634      S1638   1.803       .  S
C1635      C1636   1.403       .  A
C1636      C1637   1.393       .  A
C1636      H1643   1.082       .  S
C1637      S1639   1.811       .  S
S1638      H1641   1.406       .  S
S1639      H1640   1.406       .  S
C1644      C1645   1.407       .  A
C1645      C1646   1.400       .  A
C1645      H1654   1.084       .  S
C1646      C1647   1.412       .  A
C1646      S1650   1.803       .  S
C1648      C1649   1.399       .  A
C1648      H1655   1.084       .  S
C1649      S1651   1.801       .  S
S1650      H1653   1.403       .  S
S1651      H1652   1.408       .  S
C1656      C1661   1.415       .  A
C1657      C1658   1.399       .  A
C1657      H1666   1.083       .  S
C1658      S1662   1.790       .  S
C1659      C1660   1.406       .  A
C1660      C1661   1.396       .  A
C1660      H1667   1.082       .  S
C1661      S1663   1.804       .  S
S1662      H1665   1.407       .  S
S1663      H1664   1.407       .  S
C1668      C1669   1.399       .  A
C1668      C1673   1.419       .  A
C1669      C1670   1.393       .  A
C1669      H1678   1.082       .  S
C1670      C1671   1.424       .  A
C1670      S1674   1.814       .  S
C1671      C1672   1.404       .  A
C1672      C1673   1.406       .  A
C1672      H1679   1.084       .  S
C1673      S1920   1.803       .  S
S1674      H1677   1.406       .  S
S1675      C1918   1.803   1_554  S
S1675      H1676   1.407       .  S
C1680      C1681   1.406       .  A
C1680      C1685   1.421       .  A
C1681      C1682   1.402       .  A
C1681      H1690   1.083       .  S
C1682      C1683   1.416       .  A
C1682      S1931   1.803       .  S
C1683      C1684   1.400       .  A
C1684      C1685   1.396       .  A
C1684      H1691   1.084       .  S
C1685      S1687   1.803       .  S
S1686      C1927   1.803       .  S
S1686      H1689   1.406       .  S
S1687      H1688   1.408       .  S
C1692      C1693   1.405       .  A
C1692      C1697   1.423       .  A
C1693      C1694   1.408       .  A
C1693      H1702   1.084       .  S
C1694      C1695   1.422       .  A
C1694      S1698   1.803       .  S
C1695      C1696   1.399       .  A
C1696      C1697   1.391       .  A
C1696      H1703   1.082       .  S
C1697      S1699   1.810       .  S
S1698      H1701   1.406       .  S
S1699      H1700   1.407       .  S
C1704      C1705   1.403       .  A
C1704      C1709   1.421       .  A
C1705      C1706   1.394       .  A
C1705      H1714   1.084       .  S
C1706      C1707   1.418       .  A
C1706      S1710   1.807       .  S
C1707      C1708   1.403       .  A
C1708      C1709   1.409       .  A
C1708      H1715   1.082       .  S
C1709      S1711   1.808       .  S
S1710      H1713   1.408       .  S
S1711      H1712   1.407       .  S
C1716      C1717   1.402       .  A
C1716      C1721   1.401       .  A
C1716      C1949   1.495       .  S
C1717      C1718   1.417       .  A
C1717      H1722   1.078       .  S
C1718      C1719   1.417       .  A
C1718      C1727   1.507       .  S
C1719      C1720   1.400       .  A
C1719      H1723   1.078       .  S
C1720      C1721   1.403       .  A
C1720      C1940   1.496       .  S
C1721      H1724   1.083       .  S
C1725      C1730   1.397       .  A
C1725      C1928   1.484       .  S
C1726      C1727   1.417       .  A
C1726      H1731   1.078       .  S
C1727      C1728   1.416       .  A
C1728      H1732   1.079       .  S
C1729      C1730   1.400       .  A
C1729      C1913   1.491       .  S
C1730      H1733   1.084       .  S
C1734      C1735   1.401       .  A
C1734      C1739   1.393       .  A
C1734      C1892   1.476       .  S
C1735      C1736   1.416       .  A
C1735      H1740   1.079       .  S
C1736      C1737   1.416       .  A
C1736      C1745   1.510       .  S
C1737      C1738   1.407       .  A
C1737      H1741   1.078       .  S
C1738      C1739   1.400       .  A
C1738      C1901   1.492       .  S
C1739      H1742   1.083       .  S
C1743      C1748   1.395       .  A
C1743      C1865   1.482       .  S
C1744      C1745   1.415       .  A
C1744      H1749   1.080       .  S
C1745      C1746   1.419       .  A
C1746      H1750   1.077       .  S
C1747      C1748   1.400       .  A
C1747      C1880   1.490       .  S
C1748      H1751   1.085   1_565  S
C1752      C1753   1.406       .  A
C1752      C1757   1.397       .  A
C1753      C1754   1.416       .  A
C1753      H1758   1.081       .  S
C1754      C1755   1.412       .  A
C1755      C1756   1.400       .  A
C1755      H1759   1.081       .  S
C1756      C1757   1.395       .  A
C1757      H1760   1.082       .  S
C1761      C1766   1.400       .  A
C1761      C1829   1.486       .  S
C1762      C1763   1.413       .  A
C1762      H1767   1.081       .  S
C1763      C1764   1.414       .  A
C1764      H1768   1.081       .  S
C1765      C1766   1.400       .  A
C1765      C1820   1.487       .  S
C1766      H1769   1.083       .  S
O1770     Mn1796   2.114       .  S
C1771      C1952   1.484       .  S
C1771      O1804   1.277       .  A
C1771      O1801   1.267       .  A
O1772     Mn1779   2.169       .  S
O1772     Mn1790   2.104       .  S
O1772     Mn1794   2.167       .  S
O1773     Mn1807   2.072       .  S
O1773      C1783   1.265       .  A
O1774     Mn1790   2.086       .  S
O1774      C1797   1.270       .  A
O1775     Mn1794   2.142       .  S
O1775      C1802   1.259       .  A
O1776     Mn1796   1.941       .  S
O1776      C1792   1.212       .  S
C1777      C1817   1.482       .  S
C1777      O1780   1.254       .  A
C1777      O1803   1.218       .  S
O1778     Mn1779   2.173       .  S
O1778     Mn1812   2.110       .  S
O1778     Mn1794   2.173       .  S
Mn1779     O1784   2.144       .  S
O1781     Mn1788   2.106       .  S
O1781      C1783   1.273       .  A
C1782      C1844   1.481       .  S
C1782      O1808   1.253       .  A
C1782      O1795   1.219       .  S
C1783      C1925   1.489       .  S
O1784      C1809   1.255       .  A
O1785     Mn1788   2.115       .  S
O1785     Mn1807   2.122       .  S
O1786     Mn1790   1.946       .  S
O1786     Mn1812   1.959       .  S
O1786      C1809   1.206       .  S
C1787      C1868   1.498       .  S
C1787      O1813   1.268   1_565  A
C1787      O1789   1.278       .  A
Mn1788     O1801   2.068       .  S
O1789     Mn1812   2.132       .  S
Mn1790     O1806   2.135       .  S
Mn1790     O1800   1.958       .  S
O1791     Mn1796   2.061       .  S
C1792      C1877   1.481       .  S
C1792      O1810   1.254       .  A
C1793      C1853   1.491       .  S
C1793      O1806   1.276       .  A
O1795     Mn1798   1.950       .  S
Mn1796     O1814   1.968       .  S
C1797      C1832   1.488       .  S
Mn1798     O1803   1.956       .  S
C1799      C1889   1.487       .  S
C1799      O1805   1.270   1_565  A
C1799      O1815   1.272       .  A
O1800     Mn1812   1.955       .  S
O1800      C1802   1.208       .  S
C1802      C1916   1.485       .  S
O1804     Mn1807   2.116       .  S
C1809      C1937   1.488       .  S
O1811      C1816   1.255       .  A
Mn1812     O1815   2.094       .  S
O1814      C1816   1.220       .  S
C1816      C1904   1.487       .  S
C1817      C1822   1.416       .  A
C1818      C1819   1.393       .  A
C1818      H1827   1.083       .  S
C1819      S1823   1.805       .  S
C1820      C1821   1.408       .  A
C1821      C1822   1.404       .  A
C1821      H1828   1.084   1_556  S
C1822      S1824   1.803       .  S
S1823      H1826   1.407       .  S
C1829      C1834   1.414       .  A
C1830      C1831   1.400       .  A
C1830      H1839   1.084       .  S
C1831      S1835   1.796       .  S
C1832      C1833   1.407       .  A
C1833      C1834   1.399       .  A
C1833      H1840   1.084       .  S
C1834      S1836   1.805       .  S
S1835      H1838   1.407       .  S
S1836      H1837   1.407       .  S
C1841      C1846   1.414       .  A
C1842      C1843   1.398       .  A
C1842      H1851   1.084       .  S
C1843      S1847   1.789       .  S
C1844      C1845   1.405       .  A
C1845      C1846   1.396       .  A
C1845      H1852   1.083       .  S
C1846      S1848   1.805       .  S
S1847      H1850   1.407       .  S
S1848      H1849   1.407       .  S
C1853      C1858   1.414       .  A
C1854      C1855   1.396       .  A
C1854      H1863   1.084       .  S
C1855      S1859   1.806       .  S
C1856      C1857   1.404       .  A
C1857      C1858   1.402       .  A
C1857      H1864   1.084       .  S
C1858      S1860   1.793       .  S
S1859      H1862   1.407       .  S
S1860      H1861   1.407       .  S
C1865      C1866   1.401       .  A
C1866      C1867   1.400       .  A
C1866      H1875   1.084       .  S
C1867      C1868   1.416       .  A
C1867      S1871   1.787       .  S
C1869      C1870   1.398       .  A
C1869      H1876   1.083       .  S
C1870      S1872   1.805       .  S
S1871      H1874   1.406       .  S
S1872      H1873   1.407       .  S
C1877      C1882   1.416       .  A
C1878      C1879   1.406       .  A
C1878      H1887   1.084       .  S
C1879      S1883   1.803   1_556  S
C1880      C1881   1.403       .  A
C1881      C1882   1.393       .  A
C1881      H1888   1.082       .  S
C1882      S1884   1.811       .  S
S1883      H1886   1.406       .  S
S1884      H1885   1.406       .  S
C1889      C1890   1.407       .  A
C1890      C1891   1.400       .  A
C1890      H1899   1.084       .  S
C1891      C1892   1.412       .  A
C1891      S1895   1.803       .  S
C1893      C1894   1.399       .  A
C1893      H1900   1.084       .  S
C1894      S1896   1.801       .  S
S1895      H1898   1.403       .  S
S1896      H1897   1.408       .  S
C1901      C1906   1.415       .  A
C1902      C1903   1.399       .  A
C1902      H1911   1.083       .  S
C1903      S1907   1.790       .  S
C1904      C1905   1.406       .  A
C1905      C1906   1.396       .  A
C1905      H1912   1.082       .  S
C1906      S1908   1.804       .  S
S1907      H1910   1.407       .  S
S1908      H1909   1.407       .  S
C1913      C1914   1.399       .  A
C1913      C1918   1.419       .  A
C1914      C1915   1.393       .  A
C1914      H1923   1.082       .  S
C1915      C1916   1.424       .  A
C1915      S1919   1.814       .  S
C1916      C1917   1.404       .  A
C1917      C1918   1.406       .  A
C1917      H1924   1.084       .  S
S1919      H1922   1.406       .  S
S1920      H1921   1.407       .  S
C1925      C1926   1.406       .  A
C1925      C1930   1.421       .  A
C1926      C1927   1.402       .  A
C1926      H1935   1.083       .  S
C1927      C1928   1.416       .  A
C1928      C1929   1.400       .  A
C1929      C1930   1.396       .  A
C1929      H1936   1.084       .  S
C1930      S1932   1.803       .  S
S1931      H1934   1.406       .  S
S1932      H1933   1.408       .  S
C1937      C1938   1.405       .  A
C1937      C1942   1.423       .  A
C1938      C1939   1.408       .  A
C1938      H1947   1.084       .  S
C1939      C1940   1.422       .  A
C1939      S1943   1.803       .  S
C1940      C1941   1.399       .  A
C1941      C1942   1.391       .  A
C1941      H1948   1.082       .  S
C1942      S1944   1.810       .  S
S1943      H1946   1.406       .  S
S1944      H1945   1.407       .  S
C1949      C1950   1.403       .  A
C1949      C1954   1.421       .  A
C1950      C1951   1.394       .  A
C1950      H1959   1.084       .  S
C1951      C1952   1.418       .  A
C1951      S1955   1.807       .  S
C1952      C1953   1.403       .  A
C1953      C1954   1.409       .  A
C1953      H1960   1.082       .  S
C1954      S1956   1.808       .  S
S1955      H1958   1.408       .  S
S1956      H1957   1.407       .  S
