geometry optimzed in LAMMPS
_audit_creation_date              2020-11-30 
_audit_creation_method            'lammps2cif' 
_symmetry_space_group_name_H-M    'P1' 
_symmetry_Int_Tables_number       1 
_symmetry_cell_setting            triclinic 
loop_ 
_symmetry_equiv_pos_as_xyz 
  x,y,z 
_cell_length_a                    33.68797306 
_cell_length_b                    33.17117187396542 
_cell_length_c                    34.77512307674511 
_cell_angle_alpha                 90.48240532437696 
_cell_angle_beta                  89.71294133627111 
_cell_angle_gamma                 89.50105067108046 
loop_ 
_atom_site_label 
_atom_site_type_symbol 
_atom_site_fract_x 
_atom_site_fract_y 
_atom_site_fract_z 
_atom_site_charge 
C1          C  0.85250900  0.35384362  0.03961515     0.30100
C2          C  0.85285979  0.35666127  0.46018402     0.30100
C3          C  0.81359919  0.36680958  0.02045625    -0.06000
C4          C  0.88316209  0.38230408  0.02101046    -0.06800
C5          C  0.86305977  0.31396376  0.01849233    -0.06700
C6          C  0.81372118  0.36779583  0.48025581    -0.06100
C7          C  0.88348478  0.38327655  0.48081010    -0.06800
C8          C  0.86285212  0.31522993  0.47817509    -0.06700
C9          C  0.77674825  0.38066915  0.46871622    -0.32100
N10         N  0.75449502  0.38813818  0.00122021     0.14400
C11         C  0.77645627  0.37926404  0.03269698    -0.32100
H12         H  0.76643774  0.38265349  0.06218740     0.16300
C13         C  0.91511577  0.40672977  0.47004524    -0.31100
N14         N  0.93234283  0.42197734  0.50209887     0.13100
C15         C  0.91430531  0.40589820  0.03337708    -0.31100
C16         C  0.87961217  0.27944681  0.46523420    -0.31400
N17         N  0.88864236  0.25642847  0.99570088     0.13600
H18         H  0.88610343  0.27109992  0.43568297     0.16300
C19         C  0.88049879  0.27769693  0.02833787    -0.31400
H20         H  0.88805934  0.26788863  0.05696133     0.16300
H21         H  0.92358578  0.41071312  0.06281684     0.16300
H22         H  0.76720816  0.38580858  0.43947117     0.16300
H23         H  0.92484769  0.41267808  0.44100525     0.16300
C24         C  0.85548470  0.36103016  0.21021045     0.30100
C25         C  0.85462490  0.36000404  0.28949945     0.30100
C26         C  0.87291513  0.32279312  0.22913855    -0.06000
C27         C  0.88027513  0.39377975  0.23038453    -0.06800
C28         C  0.81481766  0.36529038  0.22973700    -0.06700
C29         C  0.87299596  0.32266139  0.26930790    -0.06100
C30         C  0.87937629  0.39382542  0.27080424    -0.06800
C31         C  0.81434354  0.36478713  0.26973466    -0.06700
C32         C  0.89271343  0.28818749  0.28044417    -0.32100
N33         N  0.90330202  0.26667366  0.24857827     0.14400
C34         C  0.89172111  0.28768732  0.21709854    -0.32100
H35         H  0.89627059  0.27778664  0.18768445     0.16300
C36         C  0.91123751  0.41667703  0.28282097    -0.31100
N37         N  0.93062178  0.43059260  0.25151322     0.13100
C38         C  0.91321827  0.41543043  0.21961133    -0.31100
C39         C  0.77739111  0.37835070  0.28143000    -0.31400
N40         N  0.75572627  0.38683185  0.24969667     0.13600
H41         H  0.76796313  0.38450931  0.31070377     0.16300
C42         C  0.77816750  0.37904289  0.21800858    -0.31400
H43         H  0.76941248  0.38571817  0.18880348     0.16300
H44         H  0.92458110  0.41893139  0.19071238     0.16300
H45         H  0.89858042  0.27900974  0.30968287     0.16300
H46         H  0.92135306  0.42097844  0.31205015     0.16300
C47         C  0.62700805  0.86394446  0.45644853     0.30100
C48         C  0.63008961  0.86671831  0.03571765     0.30100
C49         C  0.66784537  0.87417125  0.47416136    -0.06000
C50         C  0.59897627  0.89415325  0.47673831    -0.06800
C51         C  0.61815035  0.82406679  0.47739367    -0.06700
C52         C  0.66891057  0.87610081  0.01428592    -0.06100
C53         C  0.59938328  0.89459352  0.01667090    -0.06800
C54         C  0.61858686  0.82575652  0.01746154    -0.06700
C55         C  0.70720132  0.88540988  0.02469171    -0.32100
N56         N  0.72960990  0.88842659  0.49210903     0.14400
C57         C  0.70611693  0.88116088  0.46125089    -0.32100
H58         H  0.71622987  0.88182283  0.43165390     0.16300
C59         C  0.56841679  0.91929490  0.02851590    -0.31100
N60         N  0.55122542  0.93547001  0.49713106     0.13100
C61         C  0.56892418  0.91972315  0.46525829    -0.31100
C62         C  0.60523418  0.78903644  0.03035592    -0.31400
N63         N  0.59901870  0.76496528  0.50003602     0.13600
H64         H  0.59898282  0.78076574  0.05976691     0.16300
C65         C  0.60826313  0.78510632  0.46750633    -0.31400
H66         H  0.60651966  0.77244510  0.43880271     0.16300
H67         H  0.56020751  0.92605125  0.43599031     0.16300
H68         H  0.71802341  0.88995735  0.05361664     0.16300
H69         H  0.55908162  0.92543280  0.05780099     0.16300
C70         C  0.62946878  0.86660240  0.20634696     0.30100
C71         C  0.62695761  0.86921260  0.28576778     0.30100
C72         C  0.66805488  0.87820359  0.22672514    -0.06000
C73         C  0.59901271  0.89627931  0.22470603    -0.06800
C74         C  0.61759985  0.82710834  0.22635277    -0.06700
C75         C  0.66735395  0.87877466  0.26681620    -0.06100
C76         C  0.59790069  0.89741747  0.26482658    -0.06800
C77         C  0.61765668  0.82794120  0.26659041    -0.06700
C78         C  0.70546054  0.88800957  0.27841777    -0.32100
N79         N  0.72812477  0.89481892  0.24671970     0.14400
C80         C  0.70573102  0.88839961  0.21503491    -0.32100
H81         H  0.71604272  0.89135563  0.18564826     0.16300
C82         C  0.56784944  0.92365886  0.27566781    -0.31100
N83         N  0.55032030  0.93813291  0.24344020     0.13100
C84         C  0.56890085  0.92153237  0.21229090    -0.31100
C85         C  0.60659076  0.78994954  0.27838817    -0.31400
N86         N  0.59774733  0.76718546  0.24702450     0.13600
H87         H  0.60469862  0.77927576  0.30759512     0.16300
C88         C  0.60327749  0.78994365  0.21521054    -0.31400
H89         H  0.59640934  0.78044542  0.18616870     0.16300
H90         H  0.56022272  0.92684766  0.18284239     0.16300
H91         H  0.71609722  0.88993591  0.30764181     0.16300
H92         H  0.55931200  0.93157630  0.30482565     0.16300
O93         O  0.91735414  0.92991169  0.46863965    -0.78400
C94         C  0.99607114  0.98929827  0.38589774     0.82700
O95         O  0.05219410  0.90794979  0.01066944    -0.79500
O96         O  0.07545214  0.04542411  0.47134120    -0.80900
O97         O  0.93703240  0.06870812  0.00881977    -0.80700
O98         O  0.89816751  0.97616172  0.01178891    -0.79400
Zn99       Zn  0.97568326  0.94320997  0.45798037     1.55700
O100        O  0.98523384  0.08635156  0.46924682    -0.80800
Cd101      Cd  0.94947045  0.00887046  0.02048998     1.59700
Cd102      Cd  0.03984013  0.96793155  0.02203717     1.59600
O103        O  0.96383164  0.00529711  0.07732862    -0.80800
O104        O  0.99522141  0.98741557  0.48962422    -1.91300
Cd105      Cd  0.01657320  0.03338301  0.45976436     1.59900
O106        O  0.02321916  0.97422817  0.07829464    -0.80700
O107        O  0.01156042  0.01916569  0.40308266    -0.79400
C108        C  0.03781885  0.88275748  0.48687095     0.83200
C109        C  0.89071019  0.94550016  0.49050197     0.82800
O110        O  0.98095234  0.95944057  0.40319748    -0.78300
C111        C  0.95444001  0.09518832  0.48893284     0.83600
O112        O  0.00896343  0.89261675  0.46514923    -0.78400
C113        C  0.99335567  0.99037285  0.09502052     0.83800
C114        C  0.10110232  0.03022750  0.49383653     0.84100
O115        O  0.09227616  0.00038865  0.01522098    -0.80800
O116        O  0.91574329  0.93597341  0.21962241    -0.78400
C117        C  0.99314660  0.99188193  0.13629617     0.82700
O118        O  0.05032991  0.90944921  0.25858037    -0.79500
O119        O  0.07423442  0.04734250  0.21867643    -0.80900
O120        O  0.93941997  0.07354024  0.26460398    -0.80700
O121        O  0.89765233  0.98154680  0.26318575    -0.79400
Zn122      Zn  0.97366124  0.94682935  0.20902757     1.55700
O123        O  0.98522801  0.09136206  0.22232683    -0.80800
Cd124      Cd  0.94986871  0.01235866  0.27225575     1.59700
Cd125      Cd  0.03972850  0.96971434  0.26989158     1.59600
O126        O  0.96511548  0.00410879  0.32823986    -0.80800
O127        O  0.99417348  0.99105883  0.23973417    -1.91300
Cd128      Cd  0.01437122  0.03744895  0.20961294     1.59900
O129        O  0.02582174  0.97573223  0.32677472    -0.80700
O130        O  0.00666624  0.02321542  0.15285413    -0.79400
C131        C  0.03303736  0.88388873  0.23702989     0.83200
C132        C  0.88939324  0.95163081  0.24151839     0.82800
O133        O  0.97999625  0.96151689  0.15423905    -0.78300
C134        C  0.95644960  0.10052327  0.24478326     0.83600
O135        O  0.00317427  0.89429937  0.21712558    -0.78400
C136        C  0.99557918  0.98954782  0.34467598     0.83800
C137        C  0.10084228  0.02971859  0.23842487     0.84100
O138        O  0.09238445  0.99970944  0.25948563    -0.80800
C139        C  0.12509386  0.61590629  0.45363503     0.30100
C140        C  0.12265059  0.61934287  0.03290432     0.30100
C141        C  0.10978580  0.65591295  0.47181546    -0.06000
C142        C  0.09744367  0.58536188  0.47348009    -0.06800
C143        C  0.16475821  0.60985176  0.47459085    -0.06700
C144        C  0.11040648  0.65842550  0.01205304    -0.06100
C145        C  0.09713912  0.58709467  0.01345436    -0.06800
C146        C  0.16376112  0.61147713  0.01443101    -0.06700
C147        C  0.10093195  0.69774950  0.02200065    -0.32100
N148        N  0.09086796  0.71768633  0.48938147     0.14400
C149        C  0.09671638  0.69285752  0.45871007    -0.32100
H150        H  0.09200354  0.70151226  0.42921094     0.16300
C151        C  0.07115329  0.55843412  0.02626205    -0.31100
N152        N  0.05474962  0.53969465  0.49546084     0.13100
C153        C  0.06943420  0.55702756  0.46307488    -0.31100
C154        C  0.20217441  0.60533329  0.02686547    -0.31400
N155        N  0.22578391  0.59920477  0.49619975     0.13600
H156        H  0.21230751  0.60457904  0.05630098     0.16300
C157        C  0.20341802  0.60163513  0.46392375    -0.31400
H158        H  0.21431971  0.59658641  0.43492433     0.16300
H159        H  0.05966180  0.55009936  0.43420975     0.16300
H160        H  0.10027490  0.71070614  0.05069989     0.16300
H161        H  0.06423805  0.55185260  0.05597782     0.16300
C162        C  0.12639120  0.61848809  0.20357024     0.30100
C163        C  0.12678817  0.62168488  0.28303615     0.30100
C164        C  0.11460798  0.65955470  0.22232789    -0.06000
C165        C  0.09840571  0.58947378  0.22430937    -0.06800
C166        C  0.16678698  0.61053596  0.22313435    -0.06700
C167        C  0.11371354  0.66079737  0.26263249    -0.06100
C168        C  0.09830156  0.59117856  0.26437048    -0.06800
C169        C  0.16629945  0.61128488  0.26326590    -0.06700
C170        C  0.09896096  0.69826480  0.27317849    -0.32100
N171        N  0.09360916  0.72056984  0.24100587     0.14400
C172        C  0.10306389  0.69734726  0.20993325    -0.32100
H173        H  0.10170107  0.70762967  0.18056474     0.16300
C174        C  0.06869120  0.56582085  0.27665730    -0.31100
N175        N  0.05194349  0.54822824  0.24544401     0.13100
C176        C  0.06982011  0.56232459  0.21328696    -0.31100
C177        C  0.20387068  0.60208838  0.27580424    -0.31400
N178        N  0.22741350  0.59624537  0.24461545     0.13600
H179        H  0.21330606  0.59913478  0.30536790     0.16300
C180        C  0.20565533  0.60243720  0.21238364    -0.31400
H181        H  0.21741021  0.60058468  0.18341658     0.16300
H182        H  0.06191009  0.55416225  0.18415331     0.16300
H183        H  0.09207037  0.70852105  0.30210838     0.16300
H184        H  0.05922819  0.56091934  0.30601216     0.16300
C185        C  0.35713884  0.13154401  0.03350916     0.30100
C186        C  0.35634798  0.12873634  0.45403032     0.30100
C187        C  0.36756232  0.17069659  0.01271106    -0.06000
C188        C  0.38484008  0.10014345  0.01436331    -0.06800
C189        C  0.31714396  0.12005556  0.01482737    -0.06700
C190        C  0.36809755  0.16957696  0.47255926    -0.06100
C191        C  0.38596266  0.09987558  0.47411480    -0.06800
C192        C  0.31681421  0.11956382  0.47450326    -0.06700
C193        C  0.38266906  0.20641452  0.46055777    -0.32100
N194        N  0.38872923  0.23038212  0.49192391     0.14400
C195        C  0.38003836  0.20833838  0.02400065    -0.32100
H196        H  0.38345311  0.21882716  0.05331859     0.16300
C197        C  0.41467798  0.07180579  0.46359137    -0.31100
N198        N  0.42834961  0.05367041  0.49580380     0.13100
C199        C  0.41017317  0.07025243  0.02676174    -0.31100
C200        C  0.28047535  0.10480534  0.46319695    -0.31400
N201        N  0.25945698  0.09505550  0.49511913     0.13600
H202        H  0.27090775  0.09939026  0.43399846     0.16300
C203        C  0.28150836  0.10372513  0.02683486    -0.31400
H204        H  0.27278012  0.09705157  0.05606258     0.16300
H205        H  0.41539129  0.06132160  0.05614550     0.16300
H206        H  0.38962525  0.21480664  0.43132908     0.16300
H207        H  0.42512204  0.06496763  0.43477195     0.16300
C208        C  0.35407937  0.13351299  0.28330764     0.30100
C209        C  0.35505312  0.13492844  0.20399125     0.30100
C210        C  0.36644897  0.17349889  0.26477631    -0.06000
C211        C  0.38374736  0.10394885  0.26311716    -0.06800
C212        C  0.31492935  0.12326981  0.26309573    -0.06700
C213        C  0.36617087  0.17429806  0.22471584    -0.06100
C214        C  0.38371593  0.10430580  0.22280972    -0.06800
C215        C  0.31572001  0.12284670  0.22310170    -0.06700
C216        C  0.38152253  0.21078805  0.21364231    -0.35300
N217        N  0.39120087  0.23204263  0.24572408     0.14400
C218        C  0.38362772  0.20899629  0.27693351    -0.32100
H219        H  0.39051247  0.21744298  0.30622786     0.16300
C220        C  0.41090757  0.07554490  0.21052833    -0.31100
N221        N  0.42877644  0.05927838  0.24175077     0.13100
C222        C  0.41250481  0.07628629  0.27388205    -0.31100
C223        C  0.28240494  0.10236342  0.21141400    -0.31400
N224        N  0.25987595  0.09343848  0.24267403     0.13600
H225        H  0.27559159  0.09343343  0.18223521     0.16300
C226        C  0.27962064  0.10628181  0.27445916    -0.31400
H227        H  0.26967482  0.10280155  0.30389378     0.16300
H228        H  0.42172129  0.06938592  0.30283131     0.16300
H229        H  0.38635830  0.22075448  0.18440061     0.16300
H230        H  0.41722878  0.06671951  0.18107701     0.16300
O231        O  0.46231666  0.48688691  0.41546369    -0.78400
C232        C  0.45158975  0.39236886  0.49949713     0.82700
O233        O  0.41158265  0.55641282  0.02463258    -0.79500
O234        O  0.50439344  0.46895687  0.08925171    -0.80900
O235        O  0.58853273  0.48313709  0.47860739    -0.80700
O236        O  0.52314323  0.51362104  0.41469292    -0.79400
Zn237      Zn  0.44800855  0.47909293  0.47023122     1.55700
O238        O  0.57016445  0.43851174  0.02287554    -0.80800
Cd239      Cd  0.53776251  0.51754929  0.47096973     1.59700
Cd240      Cd  0.47209433  0.54577843  0.03256548     1.59600
O241        O  0.55156991  0.57667655  0.48235094    -0.80800
O242        O  0.49142682  0.49882222  0.50132194    -1.91300
Cd243      Cd  0.51102903  0.45289385  0.03291005     1.59900
O244        O  0.50395123  0.59811359  0.02145561    -0.80700
O245        O  0.47993701  0.40072823  0.02255819    -0.79400
C246        C  0.38674865  0.53943436  0.50282308     0.83200
C247        C  0.49240323  0.50060790  0.39788630     0.82800
O248        O  0.43654054  0.41934231  0.47791008    -0.78300
C249        C  0.59613002  0.45298760  0.49983124     0.83600
O250        O  0.39772364  0.51046734  0.48093229    -0.78400
C251        C  0.53542000  0.60462355  0.50231390     0.83800
C252        C  0.49293553  0.50101063  0.10643453     0.84100
O253        O  0.48067213  0.53240944  0.08924282    -0.80800
O254        O  0.39946959  0.51130075  0.23009068    -0.78400
C255        C  0.49388091  0.50145749  0.14770114     0.82700
O256        O  0.48404505  0.40159751  0.27272806    -0.79500
O257        O  0.59027316  0.48384676  0.22784322    -0.80900
O258        O  0.50382391  0.59798718  0.27238068    -0.80700
O259        O  0.41424910  0.55741852  0.27408021    -0.79400
Zn260      Zn  0.45014940  0.47925351  0.22056507     1.55700
O261        O  0.55283983  0.57862442  0.23352704    -0.80800
Cd262      Cd  0.47349680  0.54549024  0.28304024     1.59700
Cd263      Cd  0.51357926  0.45439208  0.28334742     1.59600
O264        O  0.48006461  0.53188543  0.33964626    -0.80800
O265        O  0.49358630  0.49931286  0.25132842    -1.91300
Cd266      Cd  0.53958098  0.51909256  0.22081297     1.59900
O267        O  0.50513667  0.46906014  0.33956518    -0.80700
O268        O  0.52421108  0.51597964  0.16421819    -0.79400
C269        C  0.45557151  0.39270163  0.25054337     0.83200
C270        C  0.38948904  0.54126506  0.25136600     0.82800
O271        O  0.46470911  0.48639049  0.16570072    -0.78300
C272        C  0.53508448  0.60588838  0.25336633     0.83600
O273        O  0.43970852  0.41953340  0.22929582    -0.78400
C274        C  0.49228589  0.50049670  0.35676200     0.83800
C275        C  0.59843186  0.45490045  0.25044890     0.84100
O276        O  0.57298146  0.44194089  0.27439143    -0.80800
C277        C  0.40718316  0.27208543  0.24678082    -0.06000
C278        C  0.44286882  0.27902177  0.26604722    -0.17100
C279        C  0.45948189  0.31755186  0.26788406     0.11200
C280        C  0.44011948  0.35056242  0.24967685    -0.05900
C281        C  0.40432492  0.34311062  0.23020806    -0.17100
C282        C  0.38748354  0.30468334  0.22917145     0.11300
S283        S  0.50582318  0.32161510  0.29314663    -0.32100
S284        S  0.33970104  0.29950744  0.20670277    -0.32100
H285        H  0.32555023  0.27025299  0.23230370     0.29300
H286        H  0.48915504  0.34599476  0.32247192     0.29300
H287        H  0.45797578  0.25398951  0.27968705     0.19800
H288        H  0.38854541  0.36761754  0.21646822     0.19900
C289        C  0.35099801  0.13221270  0.32756349    -0.06000
C290        C  0.35652205  0.09515665  0.34626951    -0.17100
C291        C  0.35577602  0.09188383  0.38650381     0.11200
C292        C  0.35298133  0.12745517  0.40970894    -0.05900
C293        C  0.33956700  0.16248901  0.39094302    -0.17100
C294        C  0.33665885  0.16473772  0.35080190     0.11300
S295        S  0.35304777  0.04087208  0.40411719    -0.32100
S296        S  0.31001581  0.20809310  0.33275433    -0.32100
H297        H  0.29274485  0.18854804  0.30122686     0.29300
H298        H  0.33445316  0.04935695  0.43931329     0.29300
H299        H  0.35882662  0.06772709  0.32935593     0.19800
H300        H  0.32886147  0.18795516  0.40779286     0.19900
C301        C  0.35881590  0.13575199  0.07768589    -0.06000
C302        C  0.32405053  0.14764254  0.09745515    -0.17100
C303        C  0.32252008  0.15102532  0.13760560     0.11200
C304        C  0.35562562  0.13837245  0.15981649    -0.05900
C305        C  0.39198970  0.13423621  0.14011433    -0.17100
C306        C  0.39444133  0.13467898  0.09980064     0.11300
S307        S  0.27932179  0.17682720  0.15697718    -0.32100
S308        S  0.44442583  0.13736288  0.08063097    -0.32100
H309        H  0.43575807  0.15361849  0.04470441     0.29300
H310        H  0.29911314  0.19576882  0.18748189     0.29300
H311        H  0.29825445  0.15716971  0.08143853     0.19800
H312        H  0.41926347  0.13248202  0.15633530     0.19900
C313        C  0.43613626  0.35008265  0.49794381    -0.06000
C314        C  0.40605706  0.34058201  0.47136041    -0.17100
C315        C  0.39002987  0.30170412  0.46870635     0.11200
C316        C  0.40479970  0.27064582  0.49242157    -0.05900
C317        C  0.43518414  0.27938891  0.01903704    -0.17100
C318        C  0.45057150  0.31831549  0.02253228     0.11300
S319        S  0.34946631  0.29433634  0.43589477    -0.32100
S320        S  0.48806023  0.32509736  0.05875965    -0.32100
H321        H  0.46608851  0.35514148  0.07848962     0.29300
H322        H  0.32843497  0.26811552  0.46000439     0.29300
H323        H  0.39419317  0.36380531  0.45282978     0.19800
H324        H  0.44663860  0.25580023  0.03740095     0.19900
C325        C  0.26783568  0.58261386  0.24598130    -0.06000
C326        C  0.29684988  0.60850084  0.26038170    -0.17100
C327        C  0.33678137  0.59651174  0.26195562     0.11200
C328        C  0.34803559  0.55702775  0.24966154    -0.05900
C329        C  0.31846218  0.53118068  0.23563047    -0.17100
C330        C  0.27870661  0.54334291  0.23408169     0.11300
S331        S  0.37152001  0.63380244  0.27847073    -0.32100
S332        S  0.24306597  0.50675136  0.21811816    -0.32100
H333        H  0.21113655  0.52156948  0.24040307     0.29300
H334        H  0.39867785  0.62664091  0.24824462     0.29300
H335        H  0.28828322  0.63860762  0.26969677     0.19800
H336        H  0.32610826  0.50073093  0.22662497     0.19900
C337        C  0.12942001  0.61517282  0.40938485    -0.06000
C338        C  0.14201874  0.65039021  0.39074044    -0.17100
C339        C  0.14388386  0.65324860  0.35053430     0.11200
C340        C  0.12974684  0.62093562  0.32734150    -0.05900
C341        C  0.12613926  0.58352958  0.34593722    -0.17100
C342        C  0.12780231  0.57991227  0.38605223     0.11300
S343        S  0.16977043  0.69665486  0.33269246    -0.32100
S344        S  0.13496299  0.52935823  0.40350714    -0.32100
H345        H  0.15548818  0.53954850  0.43705845     0.29300
H346        H  0.18332810  0.67987809  0.29797936     0.29300
H347        H  0.15275766  0.67551448  0.40771688     0.19800
H348        H  0.12483273  0.55608913  0.32893780     0.19900
C349        C  0.12012771  0.61776919  0.07718820    -0.06000
C350        C  0.14384444  0.58915673  0.09625029    -0.17100
C351        C  0.14462542  0.58622531  0.13641926     0.11200
C352        C  0.12360645  0.61513792  0.15929513    -0.05900
C353        C  0.09348233  0.63683934  0.14026280    -0.17100
C354        C  0.09027775  0.63712763  0.10001097     0.11300
S355        S  0.16804082  0.54110655  0.15448322    -0.32100
S356        S  0.04429715  0.65758049  0.08163048    -0.32100
H357        H  0.04232497  0.63348351  0.04847060     0.29300
H358        H  0.14611130  0.53820820  0.18858805     0.29300
H359        H  0.16016102  0.56677921  0.07959203     0.19800
H360        H  0.07034003  0.65165134  0.15691791     0.19900
C361        C  0.26621015  0.58522468  0.49767341    -0.06000
C362        C  0.27590410  0.54752108  0.98029829    -0.17100
C363        C  0.31402482  0.53084554  0.98314123     0.11200
C364        C  0.34444946  0.55339811  0.50226846    -0.05900
C365        C  0.33445618  0.59087111  0.51933500    -0.17100
C366        C  0.29586190  0.60687547  0.51723724     0.11300
S367        S  0.32051088  0.48068675  0.96360121    -0.32100
S368        S  0.28655179  0.65564305  0.53885267    -0.32100
H369        H  0.25685985  0.66741230  0.51286225     0.29300
H370        H  0.33964369  0.46593913  0.99659210     0.29300
H371        H  0.25285964  0.53054273  0.96602309     0.19800
H372        H  0.35701120  0.60841439  0.53371521     0.19900
C373        C  0.14249650  0.04469124  0.23756502    -0.06000
C374        C  0.16851927  0.03338145  0.26724270    -0.17100
C375        C  0.20767980  0.04726603  0.26865971     0.11200
C376        C  0.22099090  0.07538021  0.24116038    -0.05900
C377        C  0.19529203  0.08608924  0.21115606    -0.17100
C378        C  0.15708482  0.07020624  0.20828313     0.11300
S379        S  0.23960910  0.02549674  0.30450606    -0.32100
S380        S  0.12972413  0.08230829  0.16539902    -0.32100
H381        H  0.11726219  0.04241524  0.15897523     0.29300
H382        H  0.27363579  0.02479726  0.28085767     0.29300
H383        H  0.15858885  0.01289320  0.28933914     0.19800
H384        H  0.20526083  0.10686270  0.18932226     0.19900
C385        C  0.04833944  0.84141918  0.23592403    -0.06000
C386        C  0.08043469  0.83159805  0.25999671    -0.17100
C387        C  0.09621980  0.79246814  0.26148323     0.11200
C388        C  0.07886346  0.76144385  0.23957243    -0.05900
C389        C  0.04732812  0.77093509  0.21498107    -0.17100
C390        C  0.03235702  0.81039844  0.21231843     0.11300
S391        S  0.14044570  0.78332513  0.28913580    -0.32100
S392        S  0.99371188  0.81864438  0.17756932    -0.32100
H393        H  0.01427764  0.84983607  0.15909595     0.29300
H394        H  0.14444225  0.82242242  0.30450344     0.29300
H395        H  0.09378995  0.85485527  0.27752956     0.19800
H396        H  0.03451128  0.74729996  0.19739723     0.19900
C397        C  0.14173240  0.04782699  0.49530888    -0.06000
C398        C  0.17375604  0.02365877  0.00669702    -0.17100
C399        C  0.21277256  0.03832703  0.00656159     0.11200
C400        C  0.22021939  0.07831497  0.49534525    -0.05900
C401        C  0.18800112  0.10327973  0.48623542    -0.17100
C402        C  0.14906482  0.08880591  0.48656747     0.11300
S403        S  0.25223019  0.00419646  0.01979314    -0.32100
S404        S  0.10985227  0.12501246  0.47886239    -0.32100
H405        H  0.10311007  0.11119385  0.44110596     0.29300
H406        H  0.28201115  0.02219268  0.99747449     0.29300
H407        H  0.16882773  0.99249585  0.01435781     0.19800
H408        H  0.19331175  0.13461084  0.47951073     0.19900
C409        C  0.05388945  0.84082609  0.48497769    -0.06000
C410        C  0.02927603  0.81001776  0.97145071    -0.17100
C411        C  0.04107838  0.76952204  0.97303589     0.11200
C412        C  0.07788203  0.75893266  0.48763785    -0.05900
C413        C  0.10297127  0.78926476  0.50114447    -0.17100
C414        C  0.09190876  0.82998602  0.49924626     0.11300
S415        S  0.00617112  0.73199236  0.95741905    -0.32100
S416        S  0.12856336  0.86625222  0.51385542    -0.32100
H417        H  0.12074117  0.89277779  0.48337172     0.29300
H418        H  0.01803284  0.70237893  0.98380155     0.29300
H419        H  0.99981903  0.81713152  0.96099224     0.19800
H420        H  0.13184259  0.78106045  0.51234333     0.19900
C421        C  0.45934087  0.02856632  0.24122800    -0.06000
C422        C  0.45411265  0.99348059  0.26291170    -0.17100
C423        C  0.48296516  0.96275953  0.26307623     0.11200
C424        C  0.51864177  0.96757335  0.24215127    -0.05900
C425        C  0.52380269  0.00256182  0.22030246    -0.17100
C426        C  0.49460078  0.03306889  0.21960649     0.11300
S427        S  0.47181957  0.91743141  0.28905051    -0.32100
S428        S  0.50374958  0.07872891  0.19319562    -0.32100
H429        H  0.53911964  0.06568694  0.17517397     0.29300
H430        H  0.49301069  0.89131777  0.26416479     0.29300
H431        H  0.42686872  0.98967498  0.27908224     0.19800
H432        H  0.55132435  0.00628530  0.20462801     0.19900
C433        C  0.55104797  0.64777021  0.25339265    -0.06000
C434        C  0.58197112  0.65667689  0.22752074    -0.17100
C435        C  0.59794995  0.69545585  0.22507734     0.11200
C436        C  0.58211229  0.72687902  0.24816936    -0.05900
C437        C  0.55140659  0.71826203  0.27411786    -0.17100
C438        C  0.53624160  0.67928586  0.27757247     0.11300
S439        S  0.64037158  0.70352370  0.19439955    -0.32100
S440        S  0.49919549  0.67225769  0.31442845    -0.32100
H441        H  0.51950400  0.63954293  0.33107724     0.29300
H442        H  0.64302011  0.66438879  0.17867831     0.29300
H443        H  0.59407616  0.63303637  0.20924990     0.19800
H444        H  0.53955347  0.74215419  0.29232779     0.19900
C445        C  0.84811921  0.93543810  0.24211280    -0.06000
C446        C  0.81851404  0.95841062  0.26109590    -0.17100
C447        C  0.77902634  0.94565941  0.26276255     0.11200
C448        C  0.76856458  0.90833623  0.24635466    -0.05900
C449        C  0.79768686  0.88511681  0.22744981    -0.17100
C450        C  0.83705450  0.89824388  0.22473957     0.11300
S451        S  0.74157511  0.97889157  0.28280566    -0.32100
S452        S  0.87118017  0.86582849  0.19883188    -0.32100
H453        H  0.87835626  0.89477809  0.17030477     0.29300
H454        H  0.76739953  0.00839736  0.29725656     0.29300
H455        H  0.82602704  0.98724429  0.27382288     0.19800
H456        H  0.78941749  0.85667980  0.21427303     0.19900
C457        C  0.52017509  0.96526558  0.49739600    -0.06000
C458        C  0.48213051  0.95471329  0.48486640    -0.17100
C459        C  0.45104889  0.98308347  0.48513774     0.11200
C460        C  0.45845918  0.02299868  0.49725551    -0.05900
C461        C  0.49603706  0.03294752  0.01024669    -0.17100
C462        C  0.52697671  0.00460771  0.01013116     0.11300
S463        S  0.40250199  0.96652917  0.47067675    -0.32100
S464        S  0.57514162  0.02127887  0.02550221    -0.32100
H465        H  0.59730144  0.99475236  0.00189138     0.29300
H466        H  0.38068072  0.99573395  0.49154316     0.29300
H467        H  0.47662059  0.92406166  0.47544639     0.19800
H468        H  0.50157502  0.06357116  0.01974770     0.19900
C469        C  0.62347041  0.86595583  0.41221055    -0.06000
C470        C  0.64491593  0.89615979  0.39314577    -0.17100
C471        C  0.64362326  0.90092869  0.35315475     0.11200
C472        C  0.62382717  0.87188835  0.33012342    -0.05900
C473        C  0.59573245  0.84819375  0.34948243    -0.17100
C474        C  0.59391806  0.84623898  0.38981496     0.11300
S475        S  0.66185621  0.94850016  0.33594995    -0.32100
S476        S  0.54967858  0.82299648  0.40878104    -0.32100
H477        H  0.54789493  0.84381045  0.44387963     0.29300
H478        H  0.64114246  0.94977761  0.30127684     0.29300
H479        H  0.66062741  0.91853547  0.40983607     0.19800
H480        H  0.57291292  0.83316468  0.33317491     0.19900
C481        C  0.63375545  0.86879236  0.07991239    -0.06000
C482        C  0.64690301  0.83439228  0.09968892    -0.17100
C483        C  0.64901196  0.83338068  0.13995674     0.11200
C484        C  0.63349730  0.86627209  0.16210524    -0.05900
C485        C  0.62820330  0.90274846  0.14235087    -0.17100
C486        C  0.63026678  0.90489329  0.10212654     0.11300
S487        S  0.67701581  0.79159529  0.15915159    -0.32100
S488        S  0.63339923  0.95518958  0.08297239    -0.32100
H489        H  0.65465329  0.94543183  0.04947208     0.29300
H490        H  0.68964542  0.81017977  0.19311274     0.29300
H491        H  0.65819882  0.80866711  0.08358343     0.19800
H492        H  0.62496183  0.93060872  0.15847399     0.19900
C493        C  0.58304277  0.72511981  0.50126682    -0.06000
C494        C  0.60683435  0.69265848  0.48928091    -0.17100
C495        C  0.59262828  0.65318408  0.48982824     0.11200
C496        C  0.55312374  0.64566817  0.50227621    -0.05900
C497        C  0.52940673  0.67857474  0.01359791    -0.17100
C498        C  0.54391868  0.71798766  0.01294296     0.11300
S499        S  0.62738315  0.61399216  0.47625134    -0.32100
S500        S  0.51073482  0.75829330  0.02750299    -0.32100
H501        H  0.52672345  0.78755282  0.00300149     0.29300
H502        H  0.60815247  0.60658824  0.44108308     0.29300
H503        H  0.63696413  0.69824869  0.47979036     0.19800
H504        H  0.49905399  0.67390231  0.02286476     0.19900
C505        C  0.76974621  0.90262422  0.49055598    -0.06000
C506        C  0.80074287  0.87577881  0.98419925    -0.17100
C507        C  0.84049859  0.88832739  0.98483596     0.11200
C508        C  0.84956671  0.92916120  0.49082896    -0.05900
C509        C  0.81786004  0.95628761  0.49752797    -0.17100
C510        C  0.77835861  0.94352978  0.49737475     0.11300
S511        S  0.87832458  0.84975629  0.98074403    -0.32100
S512        S  0.74006409  0.98084023  0.50626812    -0.32100
H513        H  0.71045825  0.96220737  0.48424524     0.29300
H514        H  0.90314849  0.86680457  0.00883861     0.29300
H515        H  0.79407082  0.84417133  0.97999131     0.19800
H516        H  0.82379420  0.98796047  0.50240072     0.19900
C517        C  0.02083414  0.51902373  0.24652268    -0.06000
C518        C  0.02791139  0.48041070  0.23109266    -0.17100
C519        C  0.99927877  0.45020282  0.23382883     0.11200
C520        C  0.96254922  0.45890559  0.25183431    -0.05900
C521        C  0.95560610  0.49744286  0.26747835    -0.17100
C522        C  0.98409208  0.52769878  0.26453240     0.11300
S523        S  0.01159092  0.40085802  0.21501134    -0.32100
S524        S  0.97117798  0.57731463  0.28234379    -0.32100
H525        H  0.99427565  0.59840460  0.25550372     0.29300
H526        H  0.98702989  0.37947009  0.24037003     0.29300
H527        H  0.05631349  0.47361107  0.21771923     0.19800
H528        H  0.92711114  0.50435500  0.28060583     0.19900
C529        C  0.91850456  0.22592840  0.24874743    -0.06000
C530        C  0.90064604  0.19781584  0.27306154    -0.17100
C531        C  0.91296887  0.15744127  0.27358611     0.11200
C532        C  0.94298022  0.14363359  0.24763595    -0.05900
C533        C  0.96117814  0.17227858  0.22363388    -0.17100
C534        C  0.95003217  0.21310412  0.22463691     0.11300
S535        S  0.88953499  0.12612926  0.30900724    -0.32100
S536        S  0.97861048  0.24761654  0.19613845    -0.32100
H537        H  0.97409476  0.28058455  0.22155737     0.29300
H538        H  0.92588457  0.11383694  0.32514652     0.29300
H539        H  0.87675481  0.20756123  0.29204523     0.19800
H540        H  0.98496498  0.16311721  0.20429769     0.19900
C541        C  0.63861900  0.43614030  0.24907563    -0.06000
C542        C  0.67104309  0.45985991  0.23792301    -0.17100
C543        C  0.70986187  0.44443237  0.23824746     0.11200
C544        C  0.71670565  0.40433457  0.24982881    -0.05900
C545        C  0.68460131  0.38042818  0.26049414    -0.17100
C546        C  0.64569804  0.39542484  0.25941309     0.11300
S547        S  0.74948427  0.47754190  0.22442482    -0.32100
S548        S  0.60662093  0.36009359  0.26904857    -0.32100
H549        H  0.58170909  0.37415845  0.23958549     0.29300
H550        H  0.77848023  0.46012224  0.24816413     0.29300
H551        H  0.66629287  0.49097773  0.22974410     0.19800
H552        H  0.68994728  0.34934272  0.26846310     0.19900
C553        C  0.02476745  0.50907047  0.49753133    -0.06000
C554        C  0.99256365  0.51484253  0.02293928    -0.17100
C555        C  0.96195439  0.48666171  0.02514527     0.11200
C556        C  0.96372338  0.45118674  0.50205154    -0.05900
C557        C  0.99649988  0.44502080  0.47759154    -0.17100
C558        C  0.02712894  0.47316119  0.47545518     0.11300
S559        S  0.92017846  0.49921479  0.05564705    -0.32100
S560        S  0.06925224  0.46029960  0.44569540    -0.32100
H561        H  0.09728910  0.47832036  0.47010132     0.29300
H562        H  0.89150619  0.48469642  0.02984101     0.29300
H563        H  0.99062078  0.54208939  0.04018452     0.19800
H564        H  0.99850123  0.41763988  0.46052846     0.19900
C565        C  0.85063916  0.35954881  0.41598291    -0.06000
C566        C  0.83879399  0.32541785  0.39472655    -0.17100
C567        C  0.83767862  0.32520077  0.35428137     0.11200
C568        C  0.85142113  0.35919953  0.33373690    -0.05900
C569        C  0.85617011  0.39510072  0.35491956    -0.17100
C570        C  0.85411364  0.39623381  0.39518366     0.11300
S571        S  0.81430569  0.28313443  0.33018816    -0.32100
S572        S  0.85231561  0.44637100  0.41613892    -0.32100
H573        H  0.83162327  0.43723707  0.44982124     0.29300
H574        H  0.81259794  0.25731696  0.36202733     0.29300
H575        H  0.82822454  0.29932484  0.40990796     0.19800
H576        H  0.85884855  0.42340091  0.33998941     0.19900
C577        C  0.85274322  0.36109479  0.16597926    -0.06000
C578        C  0.84108421  0.32525033  0.14737113    -0.17100
C579        C  0.83767077  0.32234736  0.10723695     0.11200
C580        C  0.85023213  0.35486808  0.08391926    -0.05900
C581        C  0.85485748  0.39229804  0.10265840    -0.17100
C582        C  0.85446954  0.39622861  0.14280020     0.11300
S583        S  0.81122837  0.27901482  0.08955221    -0.32100
S584        S  0.85086905  0.44741438  0.16068292    -0.32100
H585        H  0.82732381  0.43883960  0.19280755     0.29300
H586        H  0.79370988  0.29828531  0.05809044     0.29300
H587        H  0.83212785  0.29972949  0.16445398     0.19800
H588        H  0.85663673  0.41947636  0.08576413     0.19900
C589        C  0.90497162  0.21614232  0.49413757    -0.06000
C590        C  0.93889987  0.20849711  0.47172090    -0.17100
C591        C  0.95530130  0.16963230  0.46843229     0.11200
C592        C  0.93804278  0.13722801  0.48902665    -0.05900
C593        C  0.90313762  0.14524283  0.01021677    -0.17100
C594        C  0.88627859  0.18382232  0.01245290     0.11300
S595        S  0.99782811  0.16414356  0.43716524    -0.32100
S596        S  0.83994606  0.18922544  0.03809979    -0.32100
H597        H  0.82407074  0.21888279  0.01377843     0.29300
H598        H  0.97959859  0.13470566  0.41398755     0.29300
H599        H  0.95253609  0.23312298  0.45640525     0.19800
H600        H  0.88849472  0.12113544  0.02541159     0.19900
C601        C  0.71508719  0.40461494  0.00159613    -0.06000
C602        C  0.68253089  0.37820319  0.50438781    -0.17100
C603        C  0.64346444  0.39292359  0.50267930     0.11200
C604        C  0.63649782  0.43486177  0.49860725    -0.05900
C605        C  0.66928431  0.46116371  0.99657034    -0.17100
C606        C  0.70827384  0.44634883  0.99758834     0.11300
S607        S  0.60410014  0.35641726  0.50333204    -0.32100
S608        S  0.74802919  0.48211855  0.99313067    -0.32100
H609        H  0.77728514  0.45946394  0.01202963     0.29300
H610        H  0.58009168  0.37677930  0.47663331     0.29300
H611        H  0.68790567  0.34612183  0.50748243     0.19800
H612        H  0.66437401  0.49339330  0.99415548     0.19900
C613        C  0.85230954  0.35387021  0.53951964     0.30100
C614        C  0.85277262  0.35688753  0.96026309     0.30100
C615        C  0.81343769  0.36672984  0.52018691    -0.06000
C616        C  0.88301812  0.38231267  0.52093954    -0.06800
C617        C  0.86296994  0.31393354  0.51853503    -0.06700
C618        C  0.81370986  0.36802199  0.98052071    -0.06100
C619        C  0.88347480  0.38343546  0.98088218    -0.06800
C620        C  0.86282597  0.31540302  0.97813478    -0.06700
C621        C  0.77674373  0.38118611  0.96922321    -0.32100
N622        N  0.75428072  0.38760283  0.50056731     0.14400
C623        C  0.77614710  0.37901417  0.53219129    -0.32100
H624        H  0.76595986  0.38247227  0.56162027     0.16300
C625        C  0.91504860  0.40696917  0.97012855    -0.31100
N626        N  0.93240573  0.42205760  0.00219317     0.13100
C627        C  0.91409191  0.40602161  0.53330557    -0.31100
C628        C  0.87954424  0.27965994  0.96504272    -0.31400
N629        N  0.88868735  0.25634372  0.49599809     0.13600
H630        H  0.88597802  0.27140515  0.93545984     0.16300
C631        C  0.88046423  0.27774873  0.52853779    -0.31400
H632        H  0.88801622  0.26809657  0.55721114     0.16300
H633        H  0.92322368  0.41106409  0.56275954     0.16300
H634        H  0.76706948  0.38650508  0.94005191     0.16300
H635        H  0.92467280  0.41305755  0.94108323     0.16300
C636        C  0.85515185  0.36102925  0.71012852     0.30100
C637        C  0.85437076  0.36009682  0.78942666     0.30100
C638        C  0.87306271  0.32300510  0.72909006    -0.06000
C639        C  0.87951045  0.39414488  0.73024678    -0.06800
C640        C  0.81445076  0.36477157  0.72965006    -0.06700
C641        C  0.87322053  0.32296002  0.76925899    -0.06100
C642        C  0.87865925  0.39421747  0.77068090    -0.06800
C643        C  0.81399198  0.36432286  0.76966725    -0.06700
C644        C  0.89321670  0.28864997  0.78043098    -0.32100
N645        N  0.90384922  0.26705387  0.74860808     0.14400
C646        C  0.89199216  0.28792523  0.71710584    -0.32100
H647        H  0.89634532  0.27792271  0.68770026     0.16300
C648        C  0.91062521  0.41695979  0.78261784    -0.31100
N649        N  0.92993761  0.43090431  0.75129739     0.13100
C650        C  0.91247274  0.41575671  0.71943396    -0.31100
C651        C  0.77707548  0.37810339  0.78130959    -0.31400
N652        N  0.75541974  0.38654569  0.74955627     0.13600
H653        H  0.76770343  0.38449046  0.81055749     0.16300
C654        C  0.77785311  0.37865682  0.71790225    -0.31400
H655        H  0.76916609  0.38543265  0.68869780     0.16300
H656        H  0.92382725  0.41919724  0.69052308     0.16300
H657        H  0.89919179  0.27962834  0.80969616     0.16300
H658        H  0.92089109  0.42113057  0.81181115     0.16300
C659        C  0.62700731  0.86392250  0.95634598     0.30100
C660        C  0.63034438  0.86694011  0.53580357     0.30100
C661        C  0.66769744  0.87445993  0.97417950    -0.06000
C662        C  0.59868834  0.89383252  0.97663674    -0.06800
C663        C  0.61845762  0.82390344  0.97713797    -0.06700
C664        C  0.66916004  0.87587456  0.51425432    -0.06100
C665        C  0.59981684  0.89503345  0.51677369    -0.06800
C666        C  0.61844399  0.82604562  0.51771457    -0.06700
C667        C  0.70750926  0.88489889  0.52460592    -0.32100
N668        N  0.72933235  0.88908745  0.99221697     0.14400
C669        C  0.70594164  0.88166207  0.96133346    -0.32100
H670        H  0.71613097  0.88227402  0.93175997     0.16300
C671        C  0.56892522  0.91981264  0.52866261    -0.31100
N672        N  0.55083714  0.93503678  0.99696128     0.13100
C673        C  0.56866805  0.91940671  0.96511155    -0.31100
C674        C  0.60514311  0.78939746  0.53080706    -0.31400
N675        N  0.59930867  0.76469151  0.99947297     0.13600
H676        H  0.59916148  0.78119406  0.56028723     0.16300
C677        C  0.60870368  0.78495960  0.96706292    -0.31400
H678        H  0.60702422  0.77243824  0.93829969     0.16300
H679        H  0.56011992  0.92588605  0.93582728     0.16300
H680        H  0.71837718  0.88946785  0.55351131     0.16300
H681        H  0.55966798  0.92598444  0.55796534     0.16300
C682        C  0.63011660  0.86693919  0.70631846     0.30100
C683        C  0.62716034  0.86926574  0.78571983     0.30100
C684        C  0.66876569  0.87781762  0.72695737    -0.06000
C685        C  0.60000507  0.89700698  0.72461749    -0.06800
C686        C  0.61748541  0.82754934  0.72609292    -0.06700
C687        C  0.66782741  0.87820627  0.76704074    -0.06100
C688        C  0.59868491  0.89800711  0.76472960    -0.06800
C689        C  0.61726041  0.82822014  0.76633778    -0.06700
C690        C  0.70595102  0.88700819  0.77892098    -0.32100
N691        N  0.72887647  0.89368245  0.74738380     0.14400
C692        C  0.70662019  0.88768989  0.71553716    -0.32100
H693        H  0.71711693  0.89083685  0.68623855     0.16300
C694        C  0.56859943  0.92421178  0.77551936    -0.31100
N695        N  0.55121179  0.93876733  0.74326175     0.13100
C696        C  0.56993190  0.92227420  0.71214314    -0.31100
C697        C  0.60560145  0.79031489  0.77789166    -0.31400
N698        N  0.59673914  0.76777131  0.74638006     0.13600
H699        H  0.60345463  0.77949432  0.80703014     0.16300
C700        C  0.60284762  0.79058400  0.71469160    -0.31400
H701        H  0.59623904  0.78124542  0.68554491     0.16300
H702        H  0.56126016  0.92753160  0.68268064     0.16300
H703        H  0.71638413  0.88890125  0.80821948     0.16300
H704        H  0.55981303  0.93189703  0.80466429     0.16300
O705        O  0.91711040  0.93025662  0.96846957    -0.78400
C706        C  0.99634487  0.98922449  0.88576233     0.82700
O707        O  0.05223642  0.90775663  0.51089743    -0.79500
O708        O  0.07525564  0.04568821  0.97165323    -0.80900
O709        O  0.93723471  0.06858264  0.50917583    -0.80700
O710        O  0.89827284  0.97589828  0.51179939    -0.79400
Zn711      Zn  0.97552457  0.94329752  0.95788327     1.55700
O712        O  0.98488063  0.08631886  0.96865117    -0.80800
Cd713      Cd  0.94958601  0.00863808  0.52052824     1.59700
Cd714      Cd  0.04015633  0.96786235  0.52194954     1.59600
O715        O  0.96402726  0.00488265  0.57728987    -0.80800
O716        O  0.99504850  0.98751820  0.98956875    -1.91300
Cd717      Cd  0.01650961  0.03341918  0.95965308     1.59900
O718        O  0.02384120  0.97465877  0.57821084    -0.80700
O719        O  0.01198347  0.01899852  0.90296410    -0.79400
C720        C  0.03773996  0.88286208  0.98674671     0.83200
C721        C  0.89052178  0.94586834  0.99039056     0.82800
O722        O  0.98095910  0.95950183  0.90306145    -0.78300
C723        C  0.95409695  0.09520397  0.98833926     0.83600
O724        O  0.00873795  0.89257327  0.96513336    -0.78400
C725        C  0.99380661  0.99045565  0.59494415     0.83800
C726        C  0.10077336  0.03058508  0.99435023     0.84100
O727        O  0.09268981  0.00003253  0.51473266    -0.80800
O728        O  0.91595077  0.93585895  0.71962169    -0.78400
C729        C  0.99359724  0.99199852  0.63619831     0.82700
O730        O  0.05037096  0.90933843  0.75818644    -0.79500
O731        O  0.07473589  0.04708984  0.71893028    -0.80900
O732        O  0.93974309  0.07377842  0.76425412    -0.80700
O733        O  0.89800281  0.98132472  0.76338690    -0.79400
Zn734      Zn  0.97379419  0.94694038  0.70879384     1.55700
O735        O  0.98594658  0.09153900  0.72232239    -0.80800
Cd736      Cd  0.95015439  0.01250318  0.77207257     1.59700
Cd737      Cd  0.03991982  0.96953112  0.76976277     1.59600
O738        O  0.96559275  0.00435671  0.82806237    -0.80800
O739        O  0.99444063  0.99108615  0.73958773    -1.91300
Cd740      Cd  0.01489658  0.03744921  0.70958570     1.59900
O741        O  0.02601825  0.97536102  0.82664508    -0.80700
O742        O  0.00747960  0.02315869  0.65277609    -0.79400
C743        C  0.03319644  0.88389824  0.73642348     0.83200
C744        C  0.88975159  0.95131440  0.74182286     0.82800
O745        O  0.98001348  0.96181384  0.65410130    -0.78300
C746        C  0.95708505  0.10077452  0.74466443     0.83600
O747        O  0.00337901  0.89438185  0.71649291    -0.78400
C748        C  0.99590095  0.98948062  0.84452704     0.83800
C749        C  0.10128660  0.02937765  0.73867201     0.84100
O750        O  0.09274830  0.99932936  0.75964178    -0.80800
C751        C  0.12515648  0.61614857  0.95351891     0.30100
C752        C  0.12236237  0.61921205  0.53299758     0.30100
C753        C  0.11036002  0.65630330  0.97181236    -0.06000
C754        C  0.09722377  0.58586647  0.97337945    -0.06800
C755        C  0.16481198  0.60961733  0.97435946    -0.06700
C756        C  0.10970972  0.65810921  0.51205216    -0.06100
C757        C  0.09724863  0.58666611  0.51355448    -0.06800
C758        C  0.16358488  0.61176797  0.51465455    -0.06700
C759        C  0.09991243  0.69737251  0.52188880    -0.32100
N760        N  0.09200124  0.71820098  0.98954485     0.14400
C761        C  0.09754467  0.69338330  0.95881898    -0.32100
H762        H  0.09260491  0.70208469  0.92936659     0.16300
C763        C  0.07123503  0.55804765  0.52636700    -0.31100
N764        N  0.05457332  0.54012271  0.99536422     0.13100
C765        C  0.06918304  0.55754782  0.96298207    -0.31100
C766        C  0.20195980  0.60572368  0.52723066    -0.31400
N767        N  0.22589229  0.59878083  0.99575946     0.13600
H768        H  0.21197224  0.60490533  0.55670720     0.16300
C769        C  0.20342312  0.60131341  0.96355729    -0.31400
H770        H  0.21423667  0.59638879  0.93450880     0.16300
H771        H  0.05942237  0.55062949  0.93411214     0.16300
H772        H  0.09927634  0.71043507  0.55054697     0.16300
H773        H  0.06412450  0.55161930  0.55607200     0.16300
C774        C  0.12603387  0.61830260  0.70350120     0.30100
C775        C  0.12649608  0.62181802  0.78292178     0.30100
C776        C  0.11455857  0.65951617  0.72208522    -0.06000
C777        C  0.09784207  0.58959710  0.72434642    -0.06800
C778        C  0.16638368  0.61016152  0.72303912    -0.06700
C779        C  0.11367731  0.66094682  0.76238219    -0.06100
C780        C  0.09775484  0.59145583  0.76439232    -0.06800
C781        C  0.16594782  0.61108550  0.76316015    -0.06700
C782        C  0.09904581  0.69851999  0.77274237    -0.32100
N783        N  0.09375962  0.72065900  0.74045293     0.14400
C784        C  0.10315637  0.69726729  0.70949691    -0.32100
H785        H  0.10179574  0.70739315  0.68007490     0.16300
C786        C  0.06796175  0.56634189  0.77677019    -0.31100
N787        N  0.05109355  0.54875676  0.74560467     0.13100
C788        C  0.06907321  0.56262728  0.71341193    -0.31100
C789        C  0.20356900  0.60200824  0.77566588    -0.31400
N790        N  0.22706725  0.59605764  0.74445482     0.13600
H791        H  0.21308365  0.59927463  0.80522367     0.16300
C792        C  0.20523146  0.60205023  0.71224186    -0.31400
H793        H  0.21693293  0.60011816  0.68325617     0.16300
H794        H  0.06116498  0.55436878  0.68430306     0.16300
H795        H  0.09215380  0.70895503  0.80161396     0.16300
H796        H  0.05854475  0.56152907  0.80615339     0.16300
C797        C  0.35716776  0.13184296  0.53342923     0.30100
C798        C  0.35615573  0.12856028  0.95412070     0.30100
C799        C  0.36750171  0.17102893  0.51257801    -0.06000
C800        C  0.38499169  0.10048676  0.51435695    -0.06800
C801        C  0.31722980  0.12019304  0.51467909    -0.06700
C802        C  0.36809046  0.16932674  0.97269356    -0.06100
C803        C  0.38571402  0.09958213  0.97411706    -0.06800
C804        C  0.31661797  0.11949564  0.97465795    -0.06700
C805        C  0.38280257  0.20613167  0.96077478    -0.32100
N806        N  0.38899484  0.22998395  0.99220467     0.14400
C807        C  0.37982157  0.20877788  0.52377412    -0.32100
H808        H  0.38320356  0.21935831  0.55306573     0.16300
C809        C  0.41439790  0.07153435  0.96349158    -0.31100
N810        N  0.42815952  0.05338591  0.99565621     0.13100
C811        C  0.41028213  0.07058576  0.52684538    -0.31100
C812        C  0.28016674  0.10492045  0.96345481    -0.31400
N813        N  0.25921702  0.09519867  0.99543718     0.13600
H814        H  0.27047444  0.09959457  0.93428112     0.16300
C815        C  0.28160015  0.10373801  0.52658626    -0.31400
H816        H  0.27278727  0.09707027  0.55578994     0.16300
H817        H  0.41540808  0.06168035  0.55625393     0.16300
H818        H  0.38973232  0.21458198  0.93155775     0.16300
H819        H  0.42477418  0.06473344  0.93464017     0.16300
C820        C  0.35431629  0.13341994  0.78338404     0.30100
C821        C  0.35530505  0.13482126  0.70403485     0.30100
C822        C  0.36631194  0.17348914  0.76483675    -0.06000
C823        C  0.38423945  0.10410565  0.76321428    -0.06800
C824        C  0.31530144  0.12282414  0.76315524    -0.06700
C825        C  0.36602185  0.17429753  0.72477208    -0.06100
C826        C  0.38424497  0.10448605  0.72289082    -0.06800
C827        C  0.31610575  0.12235571  0.72316093    -0.06700
C828        C  0.38094677  0.21097226  0.71372308    -0.35300
N829        N  0.39040113  0.23228967  0.74582939     0.14400
C830        C  0.38312791  0.20912954  0.77701305    -0.32100
H831        H  0.39002237  0.21758794  0.80630462     0.16300
C832        C  0.41154068  0.07583604  0.71062715    -0.31100
N833        N  0.42941069  0.05958938  0.74185726     0.13100
C834        C  0.41303071  0.07648804  0.77399603    -0.31100
C835        C  0.28286298  0.10176081  0.71149704    -0.31400
N836        N  0.26037491  0.09282515  0.74278352     0.13600
H837        H  0.27602953  0.09283517  0.68232200     0.16300
C838        C  0.28004952  0.10579478  0.77454929    -0.31400
H839        H  0.27006429  0.10241818  0.80398398     0.16300
H840        H  0.42213316  0.06949798  0.80296038     0.16300
H841        H  0.38571529  0.22100016  0.68449329     0.16300
H842        H  0.41788229  0.06701559  0.68117796     0.16300
O843        O  0.46268443  0.48623370  0.91537616    -0.78400
C844        C  0.45177886  0.39195613  0.99990242     0.82700
O845        O  0.41158633  0.55704229  0.52472895    -0.79500
O846        O  0.50467911  0.46904436  0.58906414    -0.80900
O847        O  0.58869735  0.48315440  0.97915266    -0.80700
O848        O  0.52349177  0.51299795  0.91459260    -0.79400
Zn849      Zn  0.44826291  0.47856298  0.97018905     1.55700
O850        O  0.57010127  0.43861624  0.52243142    -0.80800
Cd851      Cd  0.53787395  0.51724004  0.97094156     1.59700
Cd852      Cd  0.47200445  0.54600673  0.53270009     1.59600
O853        O  0.55155585  0.57647992  0.98191637    -0.80800
O854        O  0.49154313  0.49849615  0.00133662    -1.91300
Cd855      Cd  0.51103384  0.45312980  0.53266238     1.59900
O856        O  0.50401808  0.59824480  0.52195891    -0.80700
O857        O  0.47980868  0.40107906  0.52211077    -0.79400
C858        C  0.38681269  0.53878909  0.00265263     0.83200
C859        C  0.49276148  0.49996485  0.89777867     0.82800
O860        O  0.43684970  0.41884195  0.97813930    -0.78300
C861        C  0.59626847  0.45307208  0.00046262     0.83600
O862        O  0.39788460  0.50987383  0.98074018    -0.78400
C863        C  0.53534165  0.60447570  0.00177128     0.83800
C864        C  0.49297076  0.50094504  0.60635230     0.84100
O865        O  0.48041088  0.53229537  0.58928246    -0.80800
O866        O  0.39923556  0.51132771  0.72968035    -0.78400
C867        C  0.49389158  0.50128425  0.64760534     0.82700
O868        O  0.48351951  0.40161631  0.77246983    -0.79500
O869        O  0.59025728  0.48431583  0.72810747    -0.80900
O870        O  0.50318131  0.59813824  0.77222058    -0.80700
O871        O  0.41378598  0.55694359  0.77423515    -0.79400
Zn872      Zn  0.44989689  0.47926983  0.72033683     1.55700
O873        O  0.55210221  0.57904122  0.73314102    -0.80800
Cd874      Cd  0.47320613  0.54533767  0.78307043     1.59700
Cd875      Cd  0.51334448  0.45418761  0.78298267     1.59600
O876        O  0.48023839  0.53146074  0.83964255    -0.80800
O877        O  0.49333583  0.49930053  0.75118643    -1.91300
Cd878      Cd  0.53937369  0.51926241  0.72080716     1.59900
O879        O  0.50527945  0.46861310  0.83929141    -0.80700
O880        O  0.52422709  0.51572623  0.66417873    -0.79400
C881        C  0.45491527  0.39280489  0.75043289     0.83200
C882        C  0.38914256  0.54103582  0.75121857     0.82800
O883        O  0.46460924  0.48635262  0.66553545    -0.78300
C884        C  0.53424037  0.60625908  0.75295712     0.83600
O885        O  0.43913188  0.41963545  0.72913961    -0.78400
C886        C  0.49254258  0.50000741  0.85663192     0.83800
C887        C  0.59824284  0.45489097  0.75021131     0.84100
O888        O  0.57262432  0.44145133  0.77372887    -0.80800
C889        C  0.40627970  0.27234908  0.74694807    -0.06000
C890        C  0.44179092  0.27932512  0.76647786    -0.17100
C891        C  0.45840597  0.31782514  0.76834067     0.11200
C892        C  0.43926874  0.35075820  0.74978924    -0.05900
C893        C  0.40356128  0.34329996  0.73016279    -0.17100
C894        C  0.38667365  0.30489507  0.72916909     0.11300
S895        S  0.50443093  0.32191161  0.79415746    -0.32100
S896        S  0.33897744  0.29967279  0.70653290    -0.32100
H897        H  0.32474852  0.27043508  0.73211288     0.29300
H898        H  0.48760401  0.34695433  0.82288979     0.29300
H899        H  0.45676800  0.25433094  0.78031303     0.19800
H900        H  0.38791254  0.36777355  0.71623211     0.19900
C901        C  0.35114295  0.13213898  0.82764591    -0.06000
C902        C  0.35657096  0.09506295  0.84634220    -0.17100
C903        C  0.35557703  0.09175481  0.88657520     0.11200
C904        C  0.35279474  0.12731401  0.90979807    -0.05900
C905        C  0.33953337  0.16239209  0.89102462    -0.17100
C906        C  0.33668758  0.16464016  0.85087521     0.11300
S907        S  0.35250135  0.04075196  0.90415531    -0.32100
S908        S  0.30980586  0.20786408  0.83285188    -0.32100
H909        H  0.29303834  0.18840709  0.80101343     0.29300
H910        H  0.33386932  0.04932791  0.93931426     0.29300
H911        H  0.35899288  0.06765736  0.82940235     0.19800
H912        H  0.32886071  0.18787281  0.90787591     0.19900
C913        C  0.35885319  0.13600534  0.57763560    -0.06000
C914        C  0.32404380  0.14755337  0.59750922    -0.17100
C915        C  0.32258166  0.15081484  0.63768599     0.11200
C916        C  0.35579147  0.13828597  0.65983070    -0.05900
C917        C  0.39213125  0.13437213  0.64004257    -0.17100
C918        C  0.39451068  0.13500855  0.59971587     0.11300
S919        S  0.27928204  0.17630830  0.65720653    -0.32100
S920        S  0.44445177  0.13794776  0.58047526    -0.32100
H921        H  0.43567230  0.15429391  0.54461433     0.29300
H922        H  0.29908917  0.19551492  0.68754681     0.29300
H923        H  0.29815110  0.15693470  0.58156332     0.19800
H924        H  0.41944181  0.13267418  0.65620819     0.19900
C925        C  0.43626632  0.34970111  0.99846387    -0.06000
C926        C  0.40639252  0.34014059  0.97169200    -0.17100
C927        C  0.39035828  0.30128359  0.96903165     0.11200
C928        C  0.40502986  0.27025249  0.99282020    -0.05900
C929        C  0.43520548  0.27971073  0.51837268    -0.17100
C930        C  0.45071306  0.31859715  0.52174404     0.11300
S931        S  0.34980947  0.29394815  0.93619922    -0.32100
S932        S  0.48882549  0.32516130  0.55738665    -0.32100
H933        H  0.46703739  0.35484724  0.57779082     0.29300
H934        H  0.32867003  0.26789198  0.96038895     0.29300
H935        H  0.39466098  0.36331608  0.95303230     0.19800
H936        H  0.44681203  0.25607136  0.53658752     0.19900
C937        C  0.26750120  0.58244164  0.74577660    -0.06000
C938        C  0.29659470  0.60842953  0.75986461    -0.17100
C939        C  0.33651646  0.59638760  0.76145973     0.11200
C940        C  0.34769168  0.55680002  0.74944457    -0.05900
C941        C  0.31806054  0.53088322  0.73563400    -0.17100
C942        C  0.27829648  0.54306641  0.73414696     0.11300
S943        S  0.37137675  0.63370973  0.77766010    -0.32100
S944        S  0.24250040  0.50638645  0.71869768    -0.32100
H945        H  0.21081772  0.52130642  0.74125939     0.29300
H946        H  0.39866660  0.62601181  0.74765880     0.29300
H947        H  0.28809318  0.63862474  0.76896124     0.19800
H948        H  0.32566630  0.50036070  0.72682925     0.19900
C949        C  0.12935174  0.61541488  0.90925126    -0.06000
C950        C  0.14196794  0.65060076  0.89055469    -0.17100
C951        C  0.14372060  0.65344821  0.85034444     0.11200
C952        C  0.12948935  0.62114357  0.82720908    -0.05900
C953        C  0.12587064  0.58375250  0.84582392    -0.17100
C954        C  0.12763280  0.58014641  0.88593176     0.11300
S955        S  0.16961150  0.69680895  0.83239933    -0.32100
S956        S  0.13470220  0.52956986  0.90335285    -0.32100
H957        H  0.15497945  0.53961336  0.93707390     0.29300
H958        H  0.18327877  0.67983719  0.79780357     0.29300
H959        H  0.15287088  0.67568368  0.90747543     0.19800
H960        H  0.12443672  0.55631166  0.82883077     0.19900
C961        C  0.11978181  0.61757253  0.57724925    -0.06000
C962        C  0.14343335  0.58886558  0.59627875    -0.17100
C963        C  0.14414359  0.58586938  0.63643971     0.11200
C964        C  0.12319278  0.61484721  0.65927935    -0.05900
C965        C  0.09308171  0.63656968  0.64027641    -0.17100
C966        C  0.08989592  0.63688048  0.60004745     0.11300
S967        S  0.16729046  0.54062310  0.65455888    -0.32100
S968        S  0.04380423  0.65706712  0.58168833    -0.32100
H969        H  0.04189454  0.63277145  0.54865043     0.29300
H970        H  0.14530921  0.53790994  0.68865672     0.29300
H971        H  0.15977136  0.56651921  0.57959495     0.19800
H972        H  0.06994135  0.65137596  0.65694347     0.19900
C973        C  0.26634253  0.58481674  0.99712782    -0.06000
C974        C  0.27570575  0.54775755  0.48117471    -0.17100
C975        C  0.31386832  0.53118988  0.48392279     0.11200
C976        C  0.34450181  0.55275936  0.00198336    -0.05900
C977        C  0.33444106  0.59007051  0.01933585    -0.17100
C978        C  0.29592348  0.60622409  0.01703939     0.11300
S979        S  0.32028630  0.48078007  0.46496647    -0.32100
S980        S  0.28667451  0.65496936  0.03871810    -0.32100
H981        H  0.25731617  0.66695137  0.01245864     0.29300
H982        H  0.33977696  0.46654173  0.49796657     0.29300
H983        H  0.25258675  0.53058632  0.46722655     0.19800
H984        H  0.35691287  0.60742386  0.03404614     0.19900
C985        C  0.14296051  0.04428398  0.73784139    -0.06000
C986        C  0.16902257  0.03285466  0.76745459    -0.17100
C987        C  0.20820379  0.04670168  0.76883606     0.11200
C988        C  0.22149573  0.07480592  0.74132235    -0.05900
C989        C  0.19576234  0.08563820  0.71140849    -0.17100
C990        C  0.15751805  0.06988311  0.70861098     0.11300
S991        S  0.24016722  0.02499697  0.80470011    -0.32100
S992        S  0.13003633  0.08234809  0.66589935    -0.32100
H993        H  0.11769755  0.04247073  0.65915384     0.29300
H994        H  0.27421171  0.02434035  0.78107413     0.29300
H995        H  0.15909579  0.01234139  0.78953010     0.19800
H996        H  0.20571811  0.10645525  0.68960787     0.19900
C997        C  0.04861183  0.84148687  0.73512472    -0.06000
C998        C  0.08086172  0.83171962  0.75902463    -0.17100
C999        C  0.09673477  0.79263801  0.76038899     0.11200
C1000       C  0.07910573  0.76153786  0.73882457    -0.05900
C1001       C  0.04749796  0.77097852  0.71429532    -0.17100
C1002       C  0.03261034  0.81046902  0.71152964     0.11300
S1003       S  0.14126717  0.78358184  0.78760104    -0.32100
S1004       S  0.99413107  0.81878007  0.67662232    -0.32100
H1005       H  0.01474384  0.85007442  0.65835380     0.29300
H1006       H  0.14888254  0.82391869  0.79769543     0.29300
H1007       H  0.09421422  0.85493849  0.77661113     0.19800
H1008       H  0.03459943  0.74730501  0.69681885     0.19900
C1009       C  0.14138583  0.04823034  0.99600839    -0.06000
C1010       C  0.17419331  0.02311042  0.50543608    -0.17100
C1011       C  0.21318177  0.03786094  0.50545264     0.11200
C1012       C  0.21993410  0.07856408  0.99580121    -0.05900
C1013       C  0.18780101  0.10342380  0.98619053    -0.17100
C1014       C  0.14883655  0.08902971  0.98663824     0.11300
S1015       S  0.25270177  0.00360347  0.51825382    -0.32100
S1016       S  0.10972851  0.12510560  0.97804843    -0.32100
H1017       H  0.10468900  0.11180183  0.93986445     0.29300
H1018       H  0.28276011  0.02243225  0.49696498     0.29300
H1019       H  0.16933498  0.99181247  0.51264391     0.19800
H1020       H  0.19319760  0.13461061  0.97895919     0.19900
C1021       C  0.05400953  0.84101104  0.98489552    -0.06000
C1022       C  0.02937168  0.81018028  0.47043818    -0.17100
C1023       C  0.04085354  0.76958754  0.47180742     0.11200
C1024       C  0.07866118  0.75933380  0.98789234    -0.05900
C1025       C  0.10393325  0.79000136  0.00033146    -0.17100
C1026       C  0.09250348  0.83062359  0.99826514     0.11300
S1027       S  0.00617293  0.73255842  0.45469688    -0.32100
S1028       S  0.12925779  0.86738310  0.01144545    -0.32100
H1029       H  0.12009885  0.89366015  0.98111024     0.29300
H1030       H  0.01669422  0.70274886  0.48140135     0.29300
H1031       H  0.00029000  0.81762032  0.45923846     0.19800
H1032       H  0.13319171  0.78213812  0.01079733     0.19900
C1033       C  0.46003588  0.02894690  0.74128508    -0.06000
C1034       C  0.45486177  0.99376734  0.76284507    -0.17100
C1035       C  0.48374391  0.96307397  0.76284840     0.11200
C1036       C  0.51940936  0.96804980  0.74194469    -0.05900
C1037       C  0.52449009  0.00309865  0.72018458    -0.17100
C1038       C  0.49525141  0.03355940  0.71961532     0.11300
S1039       S  0.47264209  0.91754693  0.78852708    -0.32100
S1040       S  0.50430692  0.07930087  0.69330117    -0.32100
H1041       H  0.53979294  0.06645068  0.67537255     0.29300
H1042       H  0.49383415  0.89164771  0.76343449     0.29300
H1043       H  0.42762990  0.98985427  0.77901062     0.19800
H1044       H  0.55199301  0.00691465  0.70450122     0.19900
C1045       C  0.54989791  0.64830993  0.75268288    -0.06000
C1046       C  0.58085861  0.65722558  0.72684148    -0.17100
C1047       C  0.59679809  0.69603388  0.72432935     0.11200
C1048       C  0.58087505  0.72752028  0.74729809    -0.05900
C1049       C  0.54999701  0.71894385  0.77308008    -0.17100
C1050       C  0.53487973  0.67993498  0.77661616     0.11300
S1051       S  0.63939740  0.70399818  0.69385928    -0.32100
S1052       S  0.49768084  0.67298912  0.81333275    -0.32100
H1053       H  0.51823146  0.64070656  0.83045545     0.29300
H1054       H  0.64150079  0.66510628  0.67752716     0.29300
H1055       H  0.59312634  0.63353081  0.70873918     0.19800
H1056       H  0.53804228  0.74287550  0.79117751     0.19900
C1057       C  0.84863719  0.93479045  0.74282750    -0.06000
C1058       C  0.81857572  0.95855607  0.76015457    -0.17100
C1059       C  0.77918485  0.94550017  0.76201528     0.11200
C1060       C  0.76927137  0.90727373  0.74729592    -0.05900
C1061       C  0.79888624  0.88318844  0.73020690    -0.17100
C1062       C  0.83822132  0.89643412  0.72753316     0.11300
S1063       S  0.74116825  0.97915340  0.78033827    -0.32100
S1064       S  0.87332188  0.86249402  0.70484547    -0.32100
H1065       H  0.88012029  0.88869681  0.67391013     0.29300
H1066       H  0.76649202  0.00996091  0.79303298     0.29300
H1067       H  0.82569190  0.98815186  0.77141403     0.19800
H1068       H  0.79105310  0.85393957  0.71848666     0.19900
C1069       C  0.51986440  0.96490141  0.99718403    -0.06000
C1070       C  0.48184001  0.95443328  0.98453681    -0.17100
C1071       C  0.45079283  0.98283108  0.98484337     0.11200
C1072       C  0.45825100  0.02271100  0.99701318    -0.05900
C1073       C  0.49626276  0.03330099  0.51041044    -0.17100
C1074       C  0.52725627  0.00501078  0.51022968     0.11300
S1075       S  0.40219547  0.96633103  0.97048115    -0.32100
S1076       S  0.57550203  0.02177974  0.52524803    -0.32100
H1077       H  0.59745534  0.99557125  0.50112995     0.29300
H1078       H  0.38043934  0.99552575  0.99142605     0.29300
H1079       H  0.47630243  0.92380650  0.97506157     0.19800
H1080       H  0.50179102  0.06395388  0.51982672     0.19900
C1081       C  0.62349266  0.86600890  0.91212083    -0.06000
C1082       C  0.64494334  0.89623470  0.89310133    -0.17100
C1083       C  0.64379266  0.90096834  0.85310867     0.11200
C1084       C  0.62391140  0.87198704  0.83005582    -0.05900
C1085       C  0.59573549  0.84836910  0.84937888    -0.17100
C1086       C  0.59394257  0.84631689  0.88970115     0.11300
S1087       S  0.66272593  0.94827796  0.83590101    -0.32100
S1088       S  0.54981557  0.82280227  0.90862328    -0.32100
H1089       H  0.54802560  0.84330705  0.94387927     0.29300
H1090       H  0.64254505  0.94964105  0.80094243     0.29300
H1091       H  0.66062772  0.91861063  0.90980971     0.19800
H1092       H  0.57283828  0.83348392  0.83306831     0.19900
C1093       C  0.63426684  0.86910166  0.57995715    -0.06000
C1094       C  0.64749099  0.83472055  0.59971762    -0.17100
C1095       C  0.64970344  0.83374049  0.63997543     0.11200
C1096       C  0.63434357  0.86670878  0.66210521    -0.05900
C1097       C  0.62916415  0.90320077  0.64233500    -0.17100
C1098       C  0.63105483  0.90526663  0.60209893     0.11300
S1099       S  0.67738026  0.79173115  0.65918849    -0.32100
S1100       S  0.63433752  0.95549124  0.58278213    -0.32100
H1101       H  0.65551693  0.94551234  0.54928850     0.29300
H1102       H  0.68969918  0.80989836  0.69344773     0.29300
H1103       H  0.65864238  0.80893891  0.58359887     0.19800
H1104       H  0.62608814  0.93109669  0.65843000     0.19900
C1105       C  0.58313970  0.72491172  0.00047202    -0.06000
C1106       C  0.60698990  0.69232981  0.98890589    -0.17100
C1107       C  0.59270001  0.65288589  0.98959254     0.11200
C1108       C  0.55302828  0.64552881  0.00159429    -0.05900
C1109       C  0.52963352  0.67858219  0.51487309    -0.17100
C1110       C  0.54403461  0.71802872  0.51424847     0.11300
S1111       S  0.62753672  0.61346731  0.97691220    -0.32100
S1112       S  0.51093732  0.75817084  0.52940856    -0.32100
H1113       H  0.52634101  0.78749754  0.50462490     0.29300
H1114       H  0.61077185  0.60823951  0.94023254     0.29300
H1115       H  0.63726530  0.69778190  0.97978249     0.19800
H1116       H  0.49942560  0.67380084  0.52452658     0.19900
C1117       C  0.76949146  0.90323300  0.99064889    -0.06000
C1118       C  0.80102533  0.87526739  0.48386866    -0.17100
C1119       C  0.84076665  0.88786623  0.48459091     0.11200
C1120       C  0.84934491  0.92965598  0.99070150    -0.05900
C1121       C  0.81767666  0.95690700  0.99708728    -0.17100
C1122       C  0.77815012  0.94420473  0.99703960     0.11300
S1123       S  0.87861899  0.84937056  0.48005632    -0.32100
S1124       S  0.73990732  0.98166738  0.00553465    -0.32100
H1125       H  0.71017563  0.96272909  0.98392013     0.29300
H1126       H  0.90344268  0.86611300  0.50831642     0.29300
H1127       H  0.79438902  0.84368858  0.47939540     0.19800
H1128       H  0.82367048  0.98861591  0.00165963     0.19900
C1129       C  0.02004334  0.51948015  0.74670292    -0.06000
C1130       C  0.02709665  0.48100680  0.73093568    -0.17100
C1131       C  0.99847530  0.45077288  0.73342933     0.11200
C1132       C  0.96180832  0.45927631  0.75162942    -0.05900
C1133       C  0.95487710  0.49767250  0.76760140    -0.17100
C1134       C  0.98332162  0.52798489  0.76482342     0.11300
S1135       S  0.01070149  0.40167540  0.71397721    -0.32100
S1136       S  0.97032647  0.57747231  0.78289390    -0.32100
H1137       H  0.99322910  0.59873058  0.75602035     0.29300
H1138       H  0.98647261  0.37996516  0.73938212     0.29300
H1139       H  0.05545864  0.47434768  0.71741933     0.19800
H1140       H  0.92640553  0.50444794  0.78084331     0.19900
C1141       C  0.91934277  0.22635539  0.74887166    -0.06000
C1142       C  0.90253083  0.19845624  0.77413356    -0.17100
C1143       C  0.91501524  0.15810995  0.77467248     0.11200
C1144       C  0.94386626  0.14398876  0.74766791    -0.05900
C1145       C  0.96119105  0.17242447  0.72284564    -0.17100
C1146       C  0.95012965  0.21329870  0.72394397     0.11300
S1147       S  0.89358132  0.12729598  0.81165875    -0.32100
S1148       S  0.97805151  0.24759045  0.69460055    -0.32100
H1149       H  0.97426382  0.28067267  0.71999104     0.29300
H1150       H  0.93073553  0.11421380  0.82538844     0.29300
H1151       H  0.87937110  0.20832769  0.79388931     0.19800
H1152       H  0.98424984  0.16305744  0.70278049     0.19900
C1153       C  0.63840280  0.43607954  0.74873215    -0.06000
C1154       C  0.67096021  0.45995114  0.73827459    -0.17100
C1155       C  0.70973490  0.44439801  0.73854013     0.11200
C1156       C  0.71642146  0.40410629  0.74959650    -0.05900
C1157       C  0.68416872  0.38001926  0.75943878    -0.17100
C1158       C  0.64529632  0.39509440  0.75820730     0.11300
S1159       S  0.74948792  0.47748548  0.72505926    -0.32100
S1160       S  0.60603314  0.35955207  0.76637307    -0.32100
H1161       H  0.58144925  0.37464252  0.73711286     0.29300
H1162       H  0.77823430  0.45995860  0.74900711     0.29300
H1163       H  0.66633468  0.49123450  0.73060587     0.19800
H1164       H  0.68938349  0.34874788  0.76681826     0.19900
C1165       C  0.02467829  0.50937073  0.99747620    -0.06000
C1166       C  0.99225249  0.51499520  0.52241140    -0.17100
C1167       C  0.96156053  0.48690459  0.52450369     0.11200
C1168       C  0.96378117  0.45128391  0.00217118    -0.05900
C1169       C  0.99618000  0.44552990  0.97716873    -0.17100
C1170       C  0.02671338  0.47375937  0.97491069     0.11300
S1171       S  0.91926768  0.49994110  0.55413985    -0.32100
S1172       S  0.06830028  0.46130600  0.94432694    -0.32100
H1173       H  0.09673330  0.47868391  0.96872113     0.29300
H1174       H  0.89104440  0.48483871  0.52817033     0.29300
H1175       H  0.99009686  0.54249715  0.53926480     0.19800
H1176       H  0.99796209  0.41839341  0.95973216     0.19900
C1177       C  0.85045421  0.35978426  0.91602870    -0.06000
C1178       C  0.83865309  0.32562711  0.89477163    -0.17100
C1179       C  0.83764195  0.32531635  0.85430948     0.11200
C1180       C  0.85123512  0.35934271  0.83371073    -0.05900
C1181       C  0.85600072  0.39525701  0.85489916    -0.17100
C1182       C  0.85398960  0.39642737  0.89518082     0.11300
S1183       S  0.81479403  0.28294902  0.83020828    -0.32100
S1184       S  0.85227801  0.44657588  0.91610657    -0.32100
H1185       H  0.83168006  0.43746034  0.94985182     0.29300
H1186       H  0.81193338  0.25764632  0.86234263     0.29300
H1187       H  0.82811659  0.29953685  0.90996796     0.19800
H1188       H  0.85863292  0.42355892  0.83997160     0.19900
C1189       C  0.85237218  0.36112783  0.66588465    -0.06000
C1190       C  0.84085571  0.32524878  0.64726736    -0.17100
C1191       C  0.83740182  0.32237918  0.60713135     0.11200
C1192       C  0.84990542  0.35492879  0.58381696    -0.05900
C1193       C  0.85445103  0.39235924  0.60255143    -0.17100
C1194       C  0.85398228  0.39628299  0.64269541     0.11300
S1195       S  0.81092190  0.27908168  0.58944100    -0.32100
S1196       S  0.85002675  0.44746475  0.66053061    -0.32100
H1197       H  0.82640246  0.43874699  0.69256293     0.29300
H1198       H  0.79336577  0.29840495  0.55802941     0.29300
H1199       H  0.83203693  0.29967750  0.66435245     0.19800
H1200       H  0.85620799  0.41953415  0.58564718     0.19900
C1201       C  0.90476488  0.21618141  0.99363416    -0.06000
C1202       C  0.93883118  0.20858049  0.97140763    -0.17100
C1203       C  0.95508026  0.16966779  0.96792942     0.11200
C1204       C  0.93759699  0.13719968  0.98824880    -0.05900
C1205       C  0.90381919  0.14533725  0.51130980    -0.17100
C1206       C  0.88685073  0.18387162  0.51343997     0.11300
S1207       S  0.99767750  0.16419387  0.93675204    -0.32100
S1208       S  0.84081356  0.18926926  0.53957441    -0.32100
H1209       H  0.82444579  0.21848666  0.51507459     0.29300
H1210       H  0.97947836  0.13481174  0.91348365     0.29300
H1211       H  0.95267552  0.23327481  0.95637108     0.19800
H1212       H  0.88941539  0.12129914  0.52681718     0.19900
C1213       C  0.71487665  0.40411848  0.50067802    -0.06000
C1214       C  0.68277355  0.37846906  0.00380787    -0.17100
C1215       C  0.64370636  0.39315072  0.00208294     0.11200
C1216       C  0.63669422  0.43520024  0.99950666    -0.05900
C1217       C  0.66913568  0.46052328  0.49404994    -0.17100
C1218       C  0.70809444  0.44562542  0.49505158     0.11300
S1219       S  0.60441875  0.35658170  0.00064386    -0.32100
S1220       S  0.74792226  0.48098649  0.48873756    -0.32100
H1221       H  0.77688520  0.45945469  0.50919277     0.29300
H1222       H  0.58070686  0.37812754  0.97454560     0.29300
H1223       H  0.68819812  0.34628128  0.00569301     0.19800
H1224       H  0.66432059  0.49263478  0.49048090     0.19900
loop_ 
_geom_bond_atom_site_label_1 
_geom_bond_atom_site_label_2 
_geom_bond_distance 
_geom_bond_site_symmetry_2 
_ccdc_geom_bond_type 
C1            C3   1.533       .  S
C1            C5   1.546       .  S
C1            C4   1.548       .  S
C1          C580   1.542       .  S
C2            C6   1.530       .  S
C2            C8   1.550       .  S
C2            C7   1.540       .  S
C2          C565   1.543       .  S
C3           C11   1.378       .  A
C3          C618   1.390   1_554  A
C4           C15   1.383       .  A
C4          C619   1.396   1_554  A
C5           C19   1.381       .  A
C5          C620   1.405   1_554  A
C6            C9   1.376       .  A
C6          C615   1.389       .  A
C7           C13   1.377       .  A
C7          C616   1.396       .  A
C8           C16   1.381       .  A
C8          C617   1.405       .  A
C9           H22   1.083       .  S
C9          N622   1.355       .  A
N10          C11   1.357       .  A
N10         C621   1.355   1_554  A
N10         C601   1.431       .  S
C11          H12   1.083       .  S
C13          H23   1.080       .  S
C13          N14   1.355       .  A
N14         C627   1.358       .  A
N14         C556   1.440       .  S
C15          H21   1.083       .  S
C15         N626   1.358       .  A
C16          H18   1.083       .  S
C16         N629   1.356       .  A
N17          C19   1.357   1_556  A
N17         C628   1.356       .  A
N17        C1201   1.438       .  S
C19          H20   1.081       .  S
C24          C26   1.547       .  S
C24          C28   1.531       .  S
C24          C27   1.542       .  S
C24         C577   1.541       .  S
C25          C29   1.542       .  S
C25          C31   1.532       .  S
C25          C30   1.549       .  S
C25         C568   1.542       .  S
C26          C34   1.382       .  A
C26          C29   1.397       .  A
C27          C38   1.379       .  A
C27          C30   1.406       .  A
C28          C42   1.377       .  A
C28          C31   1.391       .  A
C29          C32   1.377       .  A
C30          C36   1.384       .  A
C31          C39   1.378       .  A
C32          H45   1.082       .  S
C32          N33   1.357       .  A
N33          C34   1.360       .  A
N33         C529   1.441       .  S
C34          H35   1.081       .  S
C36          H46   1.082       .  S
C36          N37   1.353       .  A
N37          C38   1.353       .  A
N37         C520   1.434       .  S
C38          H44   1.081       .  S
C39          H41   1.082       .  S
C39          N40   1.356       .  A
N40          C42   1.355       .  A
N40         C544   1.432       .  S
C42          H43   1.083       .  S
C47          C49   1.549       .  S
C47          C51   1.546       .  S
C47          C50   1.536       .  S
C47         C469   1.546       .  S
C48          C52   1.537       .  S
C48          C54   1.548       .  S
C48          C53   1.538       .  S
C48         C481   1.543       .  S
C49          C57   1.385       .  A
C49         C664   1.396       .  A
C50          C61   1.378       .  A
C50         C665   1.393       .  A
C51          C65   1.379       .  A
C51         C666   1.403       .  A
C52          C55   1.378       .  A
C52         C661   1.396   1_554  A
C53          C59   1.380       .  A
C53         C662   1.393   1_554  A
C54          C62   1.380       .  A
C54         C663   1.403   1_554  A
C55          H68   1.081       .  S
C55         N668   1.357   1_554  A
N56          C57   1.358       .  A
N56         C667   1.357       .  A
N56         C505   1.437       .  S
C57          H58   1.083       .  S
C59          H69   1.082       .  S
C59         N672   1.356   1_554  A
N60          C61   1.355       .  A
N60         C671   1.356       .  A
N60         C457   1.433       .  S
C61          H67   1.082       .  S
C62          H64   1.081       .  S
C62         N675   1.355   1_554  A
N63          C65   1.355       .  A
N63         C674   1.355       .  A
N63         C493   1.432       .  S
C65          H66   1.082       .  S
C70          C72   1.534       .  S
C70          C74   1.543       .  S
C70          C73   1.547       .  S
C70         C484   1.544       .  S
C71          C75   1.546       .  S
C71          C77   1.553       .  S
C71          C76   1.538       .  S
C71         C472   1.547       .  S
C72          C80   1.377       .  A
C72          C75   1.394       .  A
C73          C84   1.383       .  A
C73          C76   1.396       .  A
C74          C88   1.381       .  A
C74          C77   1.399       .  A
C75          C78   1.384       .  A
C76          C82   1.378       .  A
C77          C85   1.382       .  A
C78          H91   1.081       .  S
C78          N79   1.359       .  A
N79          C80   1.355       .  A
N79         C448   1.438       .  S
C80          H81   1.083       .  S
C82          H92   1.082       .  S
C82          N83   1.359       .  A
N83          C84   1.359       .  A
N83         C424   1.441       .  S
C84          H90   1.082       .  S
C85          H87   1.080       .  S
C85          N86   1.357       .  A
N86          C88   1.358       .  A
N86         C436   1.442       .  S
C88          H89   1.082       .  S
O93         C109   1.277       .  A
O93         Zn99   2.050       .  S
C94         O110   1.272       .  A
C94         O107   1.270   1_665  A
C94         C136   1.434       .  S
O95         C720   1.273   1_554  A
O95        Cd102   2.064       .  S
O96         C114   1.272       .  A
O96        Cd105   2.068       .  S
O97         C723   1.275   1_554  A
O97        Cd101   2.069       .  S
O98         C721   1.274   1_554  A
O98        Cd101   2.071   1_565  S
Zn99        O110   1.992       .  S
Zn99        O112   2.028   1_655  S
Zn99        O104   1.947       .  S
O100        C111   1.271       .  A
O100       Cd105   2.065   1_655  S
Cd101       O103   2.041       .  S
Cd101       O716   1.992   1_544  S
Cd102       O106   2.041       .  S
Cd102       O115   2.090   1_565  S
Cd102       O716   1.997   1_454  S
O103        C113   1.271   1_545  A
O104       Cd105   1.990   1_665  S
O104       Cd713   1.991   1_565  S
O104       Cd714   1.997   1_655  S
Cd105       O107   2.031       .  S
O106        C113   1.272   1_455  A
C108        O112   1.276       .  A
C108        O707   1.273       .  A
C108        C409   1.489       .  S
C109        O710   1.274       .  A
C109        C508   1.493       .  S
C111        O709   1.275       .  A
C111        C592   1.495       .  S
C113        C117   1.436       .  S
C114        O727   1.275       .  A
C114        C397   1.494       .  S
O115        C726   1.276   1_554  A
O116        C132   1.271       .  A
O116       Zn122   2.020       .  S
C117        O133   1.271       .  A
C117        O130   1.273   1_665  A
O118        C131   1.274       .  A
O118       Cd125   2.062       .  S
O119        C137   1.273       .  A
O119       Cd128   2.071       .  S
O120        C134   1.273       .  A
O120       Cd124   2.076       .  S
O121        C132   1.274       .  A
O121       Cd124   2.066   1_565  S
Zn122       O133   1.982       .  S
Zn122       O135   2.021   1_655  S
Zn122       O127   1.941       .  S
O123        C134   1.275       .  A
O123       Cd128   2.076   1_655  S
Cd124       O126   2.036       .  S
Cd124       O127   1.989   1_545  S
Cd125       O129   2.038       .  S
Cd125       O138   2.073       .  S
Cd125       O127   1.991   1_455  S
O126        C136   1.271   1_545  A
O127       Cd128   1.992   1_665  S
Cd128       O130   2.044       .  S
O129        C136   1.271   1_455  A
C131        O135   1.271       .  A
C131        C385   1.496       .  S
C132        C445   1.495       .  S
C134        C532   1.499       .  S
C137        O138   1.274   1_545  A
C137        C373   1.493       .  S
C139        C141   1.548       .  S
C139        C143   1.538       .  S
C139        C142   1.547       .  S
C139        C337   1.545       .  S
C140        C144   1.545       .  S
C140        C146   1.543       .  S
C140        C145   1.533       .  S
C140        C349   1.543       .  S
C141        C149   1.380       .  A
C141        C756   1.401       .  A
C142        C153   1.385       .  A
C142        C757   1.394       .  A
C143        C157   1.377       .  A
C143        C758   1.394       .  A
C144        C147   1.381       .  A
C144        C753   1.401   1_554  A
C145        C151   1.373       .  A
C145        C754   1.394   1_554  A
C146        C154   1.380       .  A
C146        C755   1.395   1_554  A
C147        H160   1.083       .  S
C147        N760   1.355   1_554  A
N148        C149   1.355       .  A
N148        C759   1.356       .  A
N148        C412   1.435       .  S
C149        H150   1.080       .  S
C151        H161   1.083       .  S
C151        N764   1.355   1_554  A
N152        C153   1.362       .  A
N152        C763   1.355       .  A
N152        C553   1.441       .  S
C153        H159   1.081       .  S
C154        H156   1.081       .  S
C154        N767   1.357   1_554  A
N155        C157   1.358       .  A
N155        C766   1.356       .  A
N155        C361   1.436       .  S
C157        H158   1.083       .  S
C162        C164   1.553       .  S
C162        C166   1.546       .  S
C162        C165   1.535       .  S
C162        C352   1.546       .  S
C163        C167   1.546       .  S
C163        C169   1.530       .  S
C163        C168   1.542       .  S
C163        C340   1.545       .  S
C164        C172   1.382       .  A
C164        C167   1.402       .  A
C165        C176   1.378       .  A
C165        C168   1.394       .  A
C166        C180   1.383       .  A
C166        C169   1.396       .  A
C167        C170   1.381       .  A
C168        C174   1.379       .  A
C169        C177   1.373       .  A
C170        H183   1.083       .  S
C170        N171   1.358       .  A
N171        C172   1.357       .  A
N171        C388   1.441       .  S
C172        H173   1.081       .  S
C174        H184   1.082       .  S
C174        N175   1.356       .  A
N175        C176   1.356       .  A
N175        C517   1.434       .  S
C176        H182   1.082       .  S
C177        H179   1.083       .  S
C177        N178   1.352       .  A
N178        C180   1.358       .  A
N178        C325   1.432       .  S
C180        H181   1.082       .  S
C185        C187   1.534       .  S
C185        C189   1.548       .  S
C185        C188   1.538       .  S
C185        C301   1.543       .  S
C186        C190   1.551       .  S
C186        C192   1.541       .  S
C186        C191   1.550       .  S
C186        C292   1.546       .  S
C187        C195   1.376       .  A
C187        C802   1.392   1_554  A
C188        C199   1.376       .  A
C188        C803   1.400   1_554  A
C189        C203   1.385       .  A
C189        C804   1.397   1_554  A
C190        C193   1.388       .  A
C190        C799   1.392       .  A
C191        C197   1.383       .  A
C191        C800   1.400       .  A
C192        C200   1.380       .  A
C192        C801   1.397       .  A
C193        H206   1.081       .  S
C193        N194   1.362       .  A
N194        C807   1.358       .  A
N194        C316   1.446       .  S
C195        H196   1.081       .  S
C195        N806   1.358   1_554  A
C197        H207   1.082       .  S
C197        N198   1.357       .  A
N198        C811   1.352       .  A
N198        C460   1.432       .  S
C199        H205   1.081       .  S
C199        N810   1.352   1_554  A
C200        H202   1.081       .  S
C200        N201   1.357       .  A
N201        C815   1.358       .  A
N201        C400   1.438       .  S
C203        H204   1.082       .  S
C203        N813   1.357   1_554  A
C208        C210   1.539       .  S
C208        C212   1.537       .  S
C208        C211   1.555       .  S
C208        C289   1.543       .  S
C209        C213   1.536       .  S
C209        C215   1.537       .  S
C209        C214   1.547       .  S
C209        C304   1.541       .  S
C210        C218   1.381       .  A
C210        C213   1.394       .  A
C211        C222   1.384       .  A
C211        C214   1.402       .  A
C212        C226   1.378       .  A
C212        C215   1.391       .  A
C213        C216   1.378       .  A
C214        C220   1.380       .  A
C215        C223   1.378       .  A
C216        H229   1.084       .  S
C216        N217   1.357       .  A
N217        C218   1.357       .  A
N217        C277   1.438       .  S
C218        H219   1.081       .  S
C220        H230   1.082       .  S
C220        N221   1.358       .  A
N221        C222   1.358       .  A
N221        C421   1.442       .  S
C222        H228   1.081       .  S
C223        H225   1.081       .  S
C223        N224   1.359       .  A
N224        C226   1.360       .  A
N224        C376   1.446       .  S
C226        H227   1.083       .  S
O231        C247   1.271       .  A
O231       Zn237   1.982       .  S
C232        O248   1.276       .  A
C232        O857   1.270       .  A
C232        C313   1.501       .  S
O233        C858   1.277       .  A
O233       Cd240   2.086       .  S
O234        C252   1.271       .  A
O234       Cd243   2.037       .  S
O235        C249   1.273       .  A
O235       Cd239   2.067       .  S
O236        C247   1.269       .  A
O236       Cd239   2.024       .  S
Zn237       O248   2.042       .  S
Zn237       O250   2.012       .  S
Zn237       O242   1.938       .  S
O238        C861   1.273       .  A
O238       Cd243   2.072       .  S
Cd239       O241   2.055       .  S
Cd239       O242   1.987       .  S
Cd240       O244   2.087       .  S
Cd240       O253   2.045       .  S
Cd240       O854   2.004       .  S
O241        C251   1.270       .  A
O242       Cd852   2.004       .  S
O242       Cd855   1.985       .  S
Cd243       O245   2.061       .  S
Cd243       O854   1.986       .  S
O244        C863   1.277       .  A
O245        C844   1.270   1_554  A
C246        O250   1.272       .  A
C246        O845   1.276       .  A
C246        C364   1.495       .  S
C247        C274   1.430       .  S
C249        O850   1.273       .  A
C249        C604   1.482       .  S
C251        O856   1.277       .  A
C251        C496   1.491       .  S
C252        O253   1.272       .  A
C252        C255   1.436       .  S
O254        C270   1.276       .  A
O254       Zn260   2.028       .  S
C255        O271   1.271       .  A
C255        O268   1.271       .  A
O256        C269   1.269       .  A
O256       Cd263   2.053       .  S
O257        C275   1.275       .  A
O257       Cd266   2.078       .  S
O258        C272   1.271       .  A
O258       Cd262   2.062       .  S
O259        C270   1.270       .  A
O259       Cd262   2.057       .  S
Zn260       O271   1.984       .  S
Zn260       O273   2.040       .  S
Zn260       O265   1.936       .  S
O261        C272   1.276       .  A
O261       Cd266   2.073       .  S
Cd262       O264   2.036       .  S
Cd262       O265   1.992       .  S
Cd263       O267   2.029       .  S
Cd263       O276   2.061       .  S
Cd263       O265   1.983       .  S
O264        C274   1.270       .  A
O265       Cd266   1.993       .  S
Cd266       O268   2.040       .  S
O267        C274   1.269       .  A
C269        O273   1.277       .  A
C269        C280   1.496       .  S
C270        C328   1.489       .  S
C272        C433   1.494       .  S
C275        O276   1.272       .  A
C275        C541   1.485       .  S
C277        C278   1.399       .  A
C277        C282   1.410       .  A
C278        C279   1.401       .  A
C278        H287   1.084       .  S
C279        C280   1.424       .  A
C279        S283   1.801       .  S
C280        C281   1.409       .  A
C281        C282   1.400       .  A
C281        H288   1.083       .  S
C282        S284   1.802       .  S
S283        H286   1.408       .  S
S284        H285   1.407       .  S
C289        C290   1.407       .  A
C289        C294   1.422       .  A
C290        C291   1.404       .  A
C290        H299   1.081       .  S
C291        C292   1.426       .  A
C291        S295   1.807       .  S
C292        C293   1.410       .  A
C293        C294   1.402       .  A
C293        H300   1.082       .  S
C294        S296   1.807       .  S
S295        H298   1.398       .  S
S296        H297   1.401       .  S
C301        C302   1.407       .  A
C301        C306   1.429       .  A
C302        C303   1.400       .  A
C302        H311   1.081       .  S
C303        C304   1.422       .  A
C303        S307   1.806       .  S
C304        C305   1.406       .  A
C305        C306   1.404       .  A
C305        H312   1.082       .  S
C306        S308   1.811       .  S
S307        H310   1.403       .  S
S308        H309   1.396       .  S
C313        C314   1.411       .  A
C313        C930   1.424       .  A
C314        C315   1.405       .  A
C314        H323   1.084       .  S
C315        C316   1.414       .  A
C315        S319   1.802       .  S
C316        C929   1.401       .  A
C317        C318   1.400       .  A
C317        C928   1.402   1_554  A
C317        H324   1.084       .  S
C318        C925   1.424   1_554  A
C318        S320   1.802       .  S
S319        H322   1.407       .  S
S320        H321   1.408       .  S
C325        C326   1.398       .  A
C325        C330   1.408       .  A
C326        C327   1.401       .  A
C326        H335   1.084       .  S
C327        C328   1.422       .  A
C327        S331   1.803       .  S
C328        C329   1.407       .  A
C329        C330   1.397       .  A
C329        H336   1.083       .  S
C330        S332   1.801       .  S
S331        H334   1.407       .  S
S332        H333   1.405       .  S
C337        C338   1.408       .  A
C337        C342   1.419       .  A
C338        C339   1.403       .  A
C338        H347   1.083       .  S
C339        C340   1.423       .  A
C339        S343   1.803       .  S
C340        C341   1.410       .  A
C341        C342   1.403       .  A
C341        H348   1.083       .  S
C342        S344   1.803       .  S
S343        H346   1.398       .  S
S344        H345   1.400       .  S
C349        C350   1.408       .  A
C349        C354   1.423       .  A
C350        C351   1.401       .  A
C350        H359   1.082       .  S
C351        C352   1.423       .  A
C351        S355   1.805       .  S
C352        C353   1.410       .  A
C353        C354   1.405       .  A
C353        H360   1.081       .  S
C354        S356   1.808       .  S
S355        H358   1.399       .  S
S356        H357   1.400       .  S
C361        C366   1.410       .  A
C361        C974   1.398       .  A
C362        C363   1.398       .  A
C362        C973   1.398       .  A
C362        H371   1.083       .  S
C363        C976   1.423   1_556  A
C363        S367   1.803       .  S
C364        C365   1.410       .  A
C364        C975   1.422       .  A
C365        C366   1.403       .  A
C365        H372   1.083       .  S
C366        S368   1.802       .  S
S367        H370   1.408       .  S
S368        H369   1.406       .  S
C373        C374   1.409       .  A
C373        C378   1.418       .  A
C374        C375   1.402       .  A
C374        H383   1.084       .  S
C375        C376   1.415       .  A
C375        S379   1.802       .  S
C376        C377   1.405       .  A
C377        C378   1.399       .  A
C377        H384   1.084       .  S
C378        S380   1.803       .  S
S379        H382   1.407       .  S
S380        H381   1.408       .  S
C385        C386   1.408       .  A
C385        C390   1.422       .  A
C386        C387   1.400       .  A
C386        H395   1.082       .  S
C387        C388   1.408       .  A
C387        S391   1.802       .  S
C388        C389   1.402       .  A
C389        C390   1.403       .  A
C389        H396   1.084       .  S
C390        S392   1.801   1_455  S
S391        H394   1.406       .  S
S392        H393   1.408   1_655  S
C397        C402   1.419       .  A
C397       C1010   1.409       .  A
C398        C399   1.406       .  A
C398       C1009   1.409   1_554  A
C398        H407   1.084   1_545  S
C399       C1012   1.412   1_554  A
C399        S403   1.803       .  S
C400        C401   1.399       .  A
C400       C1011   1.412       .  A
C401        C402   1.401       .  A
C401        H408   1.083       .  S
C402        S404   1.800       .  S
S403        H406   1.406   1_554  S
S404        H405   1.407       .  S
C409        C414   1.420       .  A
C409       C1022   1.408       .  A
C410        C411   1.399       .  A
C410       C1021   1.407       .  A
C410        H419   1.083   1_455  S
C411       C1024   1.409       .  A
C411        S415   1.802       .  S
C412        C413   1.399       .  A
C412       C1023   1.409       .  A
C413        C414   1.400       .  A
C413        H420   1.083       .  S
C414        S416   1.803       .  S
S415        H418   1.407       .  S
S416        H417   1.408       .  S
C421        C422   1.404   1_545  A
C421        C426   1.412       .  A
C422        C423   1.402       .  A
C422        H431   1.083       .  S
C423        C424   1.413       .  A
C423        S427   1.802       .  S
C424        C425   1.404   1_565  A
C425        C426   1.406       .  A
C425        H432   1.082       .  S
C426        S428   1.806       .  S
S427        H430   1.407       .  S
S428        H429   1.407       .  S
C433        C434   1.408       .  A
C433        C438   1.421       .  A
C434        C435   1.402       .  A
C434        H443   1.081       .  S
C435        C436   1.410       .  A
C435        S439   1.802       .  S
C436        C437   1.402       .  A
C437        C438   1.400       .  A
C437        H444   1.083       .  S
C438        S440   1.802       .  S
S439        H442   1.406       .  S
S440        H441   1.408       .  S
C445        C446   1.408       .  A
C445        C450   1.423       .  A
C446        C447   1.400       .  A
C446        H455   1.083       .  S
C447        C448   1.407       .  A
C447        S451   1.802       .  S
C448        C449   1.400       .  A
C449        C450   1.402       .  A
C449        H456   1.084       .  S
C450        S452   1.800       .  S
S451        H454   1.407   1_565  S
S452        H453   1.408       .  S
C457        C458   1.402       .  A
C457       C1074   1.411   1_565  A
C458        C459   1.402       .  A
C458        H467   1.083       .  S
C459        C460   1.411   1_565  A
C459        S463   1.802       .  S
C460       C1073   1.400       .  A
C461        C462   1.397       .  A
C461       C1072   1.399   1_554  A
C461        H468   1.084       .  S
C462       C1069   1.411   1_544  A
C462        S464   1.801       .  S
S463        H466   1.406       .  S
S464        H465   1.406   1_545  S
C469        C470   1.409       .  A
C469        C474   1.427       .  A
C470        C471   1.402       .  A
C470        H479   1.082       .  S
C471        C472   1.420       .  A
C471        S475   1.804       .  S
C472        C473   1.408       .  A
C473        C474   1.406       .  A
C473        H480   1.080       .  S
C474        S476   1.808       .  S
S475        H478   1.397       .  S
S476        H477   1.398       .  S
C481        C482   1.407       .  A
C481        C486   1.423       .  A
C482        C483   1.403       .  A
C482        H491   1.082       .  S
C483        C484   1.424       .  A
C483        S487   1.804       .  S
C484        C485   1.407       .  A
C485        C486   1.403       .  A
C485        H492   1.081       .  S
C486        S488   1.805       .  S
S487        H490   1.398       .  S
S488        H489   1.399       .  S
C493        C494   1.396       .  A
C493       C1110   1.410       .  A
C494        C495   1.398       .  A
C494        H503   1.084       .  S
C495        C496   1.422       .  A
C495        S499   1.800       .  S
C496       C1109   1.408       .  A
C497        C498   1.400       .  A
C497       C1108   1.408       .  A
C497        H504   1.083       .  S
C498       C1105   1.410       .  A
C498        S500   1.803       .  S
S499        H502   1.408       .  S
S500        H501   1.406       .  S
C505        C510   1.408       .  A
C505       C1118   1.402       .  A
C506        C507   1.406       .  A
C506       C1117   1.402       .  A
C506        H515   1.083       .  S
C507       C1120   1.419       .  A
C507        S511   1.802       .  S
C508        C509   1.408       .  A
C508       C1119   1.419       .  A
C509        C510   1.400       .  A
C509        H516   1.083       .  S
C510        S512   1.804       .  S
S511        H514   1.407   1_556  S
S512        H513   1.405       .  S
C517        C518   1.403       .  A
C517        C522   1.411   1_455  A
C518        C519   1.400   1_455  A
C518        H527   1.083       .  S
C519        C520   1.410       .  A
C519        S523   1.802   1_655  S
C520        C521   1.402       .  A
C521        C522   1.399       .  A
C521        H528   1.083       .  S
C522        S524   1.803       .  S
S523        H526   1.407   1_455  S
S524        H525   1.407       .  S
C529        C530   1.402       .  A
C529        C534   1.410       .  A
C530        C531   1.399       .  A
C530        H539   1.084       .  S
C531        C532   1.422       .  A
C531        S535   1.801       .  S
C532        C533   1.412       .  A
C533        C534   1.402       .  A
C533        H540   1.083       .  S
C534        S536   1.802       .  S
S535        H538   1.408       .  S
S536        H537   1.407       .  S
C541        C542   1.407       .  A
C541        C546   1.419       .  A
C542        C543   1.400       .  A
C542        H551   1.084       .  S
C543        C544   1.410       .  A
C543        S547   1.802       .  S
C544        C545   1.397       .  A
C545        C546   1.399       .  A
C545        H552   1.084       .  S
C546        S548   1.802       .  S
S547        H550   1.406       .  S
S548        H549   1.408       .  S
C553        C558   1.413       .  A
C553       C1166   1.404   1_455  A
C554        C555   1.400       .  A
C554       C1165   1.404   1_654  A
C554        H563   1.082       .  S
C555       C1168   1.415       .  A
C555        S559   1.802       .  S
C556        C557   1.403       .  A
C556       C1167   1.415       .  A
C557        C558   1.400   1_655  A
C557        H564   1.082       .  S
C558        S560   1.798       .  S
S559        H562   1.407       .  S
S560        H561   1.407       .  S
C565        C566   1.409       .  A
C565        C570   1.426       .  A
C566        C567   1.407       .  A
C566        H575   1.080       .  S
C567        C568   1.420       .  A
C567        S571   1.810       .  S
C568        C569   1.406       .  A
C569        C570   1.402       .  A
C569        H576   1.081       .  S
C570        S572   1.811       .  S
S571        H574   1.407       .  S
S572        H573   1.397       .  S
C577        C578   1.409       .  A
C577        C582   1.424       .  A
C578        C579   1.404       .  A
C578        H587   1.082       .  S
C579        C580   1.421       .  A
C579        S583   1.803       .  S
C580        C581   1.408       .  A
C581        C582   1.401       .  A
C581        H588   1.082       .  S
C582        S584   1.806       .  S
S583        H586   1.402       .  S
S584        H585   1.399       .  S
C589        C590   1.400       .  A
C589       C1206   1.410       .  A
C589        N629   1.438       .  S
C590        C591   1.402       .  A
C590        H599   1.083       .  S
C591        C592   1.423       .  A
C591        S595   1.801       .  S
C592       C1205   1.409       .  A
C593        C594   1.397       .  A
C593       C1204   1.409   1_554  A
C593        H600   1.083       .  S
C594       C1201   1.410   1_554  A
C594        S596   1.801       .  S
S595        H598   1.408       .  S
S596        H597   1.407       .  S
C601        C606   1.409   1_554  A
C601       C1214   1.400       .  A
C602        C603   1.401       .  A
C602       C1213   1.400       .  A
C602        H611   1.084       .  S
C603        C604   1.417       .  A
C603        S607   1.804       .  S
C604       C1217   1.405       .  A
C605        C606   1.399       .  A
C605       C1216   1.405       .  A
C605        H612   1.084       .  S
C606        S608   1.804       .  S
S607        H610   1.407       .  S
S608        H609   1.404   1_556  S
C613        C615   1.534       .  S
C613        C617   1.546       .  S
C613        C616   1.549       .  S
C613       C1192   1.542       .  S
C614        C618   1.530       .  S
C614        C620   1.550       .  S
C614        C619   1.540       .  S
C614       C1177   1.544       .  S
C615        C623   1.379       .  A
C616        C627   1.383       .  A
C617        C631   1.381       .  A
C618        C621   1.376       .  A
C619        C625   1.377       .  A
C620        C628   1.381       .  A
C621        H634   1.082       .  S
N622        C623   1.358       .  A
N622       C1213   1.432       .  S
C623        H624   1.083       .  S
C625        H635   1.080       .  S
C625        N626   1.356   1_556  A
N626       C1168   1.440       .  S
C627        H633   1.083       .  S
C628        H630   1.083       .  S
N629        C631   1.357       .  A
C631        H632   1.081       .  S
C636        C638   1.547       .  S
C636        C640   1.531       .  S
C636        C639   1.542       .  S
C636       C1189   1.542       .  S
C637        C641   1.543       .  S
C637        C643   1.533       .  S
C637        C642   1.549       .  S
C637       C1180   1.544       .  S
C638        C646   1.382       .  A
C638        C641   1.397       .  A
C639        C650   1.379       .  A
C639        C642   1.406       .  A
C640        C654   1.377       .  A
C640        C643   1.392       .  A
C641        C644   1.377       .  A
C642        C648   1.384       .  A
C643        C651   1.379       .  A
C644        H657   1.083       .  S
C644        N645   1.358       .  A
N645        C646   1.361       .  A
N645       C1141   1.443       .  S
C646        H647   1.081       .  S
C648        H658   1.082       .  S
C648        N649   1.353       .  A
N649        C650   1.352       .  A
N649       C1132   1.434       .  S
C650        H656   1.081       .  S
C651        H653   1.082       .  S
C651        N652   1.356       .  A
N652        C654   1.355       .  A
N652       C1156   1.432       .  S
C654        H655   1.083       .  S
C659        C661   1.549       .  S
C659        C663   1.546       .  S
C659        C662   1.535       .  S
C659       C1081   1.545       .  S
C660        C664   1.536       .  S
C660        C666   1.547       .  S
C660        C665   1.538       .  S
C660       C1093   1.543       .  S
C661        C669   1.385       .  A
C662        C673   1.378       .  A
C663        C677   1.379       .  A
C664        C667   1.378       .  A
C665        C671   1.380       .  A
C666        C674   1.379       .  A
C667        H680   1.081       .  S
N668        C669   1.357       .  A
N668       C1117   1.437       .  S
C669        H670   1.083       .  S
C671        H681   1.082       .  S
N672        C673   1.354       .  A
N672       C1069   1.432       .  S
C673        H679   1.082       .  S
C674        H676   1.081       .  S
N675        C677   1.355       .  A
N675       C1105   1.433   1_556  S
C677        H678   1.082       .  S
C682        C684   1.534       .  S
C682        C686   1.544       .  S
C682        C685   1.547       .  S
C682       C1096   1.543       .  S
C683        C687   1.545       .  S
C683        C689   1.554       .  S
C683        C688   1.538       .  S
C683       C1084   1.547       .  S
C684        C692   1.377       .  A
C684        C687   1.394       .  A
C685        C696   1.383       .  A
C685        C688   1.395       .  A
C686        C700   1.381       .  A
C686        C689   1.399       .  A
C687        C690   1.384       .  A
C688        C694   1.378       .  A
C689        C697   1.383       .  A
C690        H703   1.081       .  S
C690        N691   1.359       .  A
N691        C692   1.355       .  A
N691       C1060   1.437       .  S
C692        H693   1.083       .  S
C694        H704   1.082       .  S
C694        N695   1.358       .  A
N695        C696   1.358       .  A
N695       C1036   1.441       .  S
C696        H702   1.082       .  S
C697        H699   1.080       .  S
C697        N698   1.357       .  A
N698        C700   1.358       .  A
N698       C1048   1.443       .  S
C700        H701   1.082       .  S
O705        C721   1.277       .  A
O705       Zn711   2.051       .  S
C706        O722   1.272       .  A
C706        O719   1.270   1_665  A
C706        C748   1.434       .  S
O707       Cd714   2.064       .  S
O708        C726   1.272       .  A
O708       Cd717   2.068       .  S
O709       Cd713   2.070       .  S
O710       Cd713   2.072   1_565  S
Zn711       O722   1.993       .  S
Zn711       O724   2.031   1_655  S
Zn711       O716   1.948       .  S
O712        C723   1.271       .  A
O712       Cd717   2.066   1_655  S
Cd713       O715   2.040       .  S
Cd714       O718   2.040       .  S
Cd714       O727   2.090   1_565  S
O715        C725   1.271   1_545  A
O716       Cd717   1.990   1_665  S
Cd717       O719   2.031       .  S
O718        C725   1.271   1_455  A
C720        O724   1.276       .  A
C720       C1021   1.489       .  S
C721       C1120   1.492       .  S
C723       C1204   1.495       .  S
C725        C729   1.435       .  S
C726       C1009   1.494       .  S
O728        C744   1.271       .  A
O728       Zn734   2.020       .  S
C729        O745   1.271       .  A
C729        O742   1.273   1_665  A
O730        C743   1.273       .  A
O730       Cd737   2.060       .  S
O731        C749   1.273       .  A
O731       Cd740   2.071       .  S
O732        C746   1.274       .  A
O732       Cd736   2.080       .  S
O733        C744   1.275       .  A
O733       Cd736   2.069   1_565  S
Zn734       O745   1.979       .  S
Zn734       O747   2.021   1_655  S
Zn734       O739   1.943       .  S
O735        C746   1.275       .  A
O735       Cd740   2.078   1_655  S
Cd736       O738   2.037       .  S
Cd736       O739   1.989   1_545  S
Cd737       O741   2.038       .  S
Cd737       O750   2.073       .  S
Cd737       O739   1.992   1_455  S
O738        C748   1.271   1_545  A
O739       Cd740   1.992   1_665  S
Cd740       O742   2.045       .  S
O741        C748   1.271   1_455  A
C743        O747   1.271       .  A
C743        C997   1.496       .  S
C744       C1057   1.494       .  S
C746       C1144   1.500       .  S
C749        O750   1.274   1_545  A
C749        C985   1.493       .  S
C751        C753   1.549       .  S
C751        C755   1.538       .  S
C751        C754   1.547       .  S
C751        C949   1.545       .  S
C752        C756   1.545       .  S
C752        C758   1.542       .  S
C752        C757   1.532       .  S
C752        C961   1.542       .  S
C753        C761   1.380       .  A
C754        C765   1.385       .  A
C755        C769   1.377       .  A
C756        C759   1.381       .  A
C757        C763   1.373       .  A
C758        C766   1.380       .  A
C759        H772   1.083       .  S
N760        C761   1.355       .  A
N760       C1024   1.435       .  S
C761        H762   1.080       .  S
C763        H773   1.083       .  S
N764        C765   1.362       .  A
N764       C1165   1.442       .  S
C765        H771   1.081       .  S
C766        H768   1.081       .  S
N767        C769   1.358       .  A
N767        C973   1.437       .  S
C769        H770   1.083       .  S
C774        C776   1.552       .  S
C774        C778   1.545       .  S
C774        C777   1.534       .  S
C774        C964   1.545       .  S
C775        C779   1.546       .  S
C775        C781   1.531       .  S
C775        C780   1.543       .  S
C775        C952   1.544       .  S
C776        C784   1.382       .  A
C776        C779   1.402       .  A
C777        C788   1.377       .  A
C777        C780   1.393       .  A
C778        C792   1.383       .  A
C778        C781   1.395       .  A
C779        C782   1.381       .  A
C780        C786   1.379       .  A
C781        C789   1.374       .  A
C782        H795   1.083       .  S
C782        N783   1.358       .  A
N783        C784   1.356       .  A
N783       C1000   1.441       .  S
C784        H785   1.081       .  S
C786        H796   1.082       .  S
C786        N787   1.356       .  A
N787        C788   1.356       .  A
N787       C1129   1.434       .  S
C788        H794   1.082       .  S
C789        H791   1.083       .  S
C789        N790   1.352       .  A
N790        C792   1.358       .  A
N790        C937   1.432       .  S
C792        H793   1.082       .  S
C797        C799   1.536       .  S
C797        C801   1.549       .  S
C797        C800   1.538       .  S
C797        C913   1.544       .  S
C798        C802   1.551       .  S
C798        C804   1.541       .  S
C798        C803   1.549       .  S
C798        C904   1.546       .  S
C799        C807   1.376       .  A
C800        C811   1.376       .  A
C801        C815   1.386       .  A
C802        C805   1.387       .  A
C803        C809   1.382       .  A
C804        C812   1.380       .  A
C805        H818   1.081       .  S
C805        N806   1.362       .  A
N806        C928   1.445       .  S
C807        H808   1.081       .  S
C809        H819   1.082       .  S
C809        N810   1.357       .  A
N810       C1072   1.431       .  S
C811        H817   1.081       .  S
C812        H814   1.081       .  S
C812        N813   1.357       .  A
N813       C1012   1.438       .  S
C815        H816   1.082       .  S
C820        C822   1.539       .  S
C820        C824   1.536       .  S
C820        C823   1.555       .  S
C820        C901   1.543       .  S
C821        C825   1.536       .  S
C821        C827   1.537       .  S
C821        C826   1.547       .  S
C821        C916   1.542       .  S
C822        C830   1.380       .  A
C822        C825   1.394       .  A
C823        C834   1.384       .  A
C823        C826   1.402       .  A
C824        C838   1.377       .  A
C824        C827   1.391       .  A
C825        C828   1.377       .  A
C826        C832   1.380       .  A
C827        C835   1.378       .  A
C828        H841   1.084       .  S
C828        N829   1.357       .  A
N829        C830   1.357       .  A
N829        C889   1.437       .  S
C830        H831   1.081       .  S
C832        H842   1.082       .  S
C832        N833   1.358       .  A
N833        C834   1.359       .  A
N833       C1033   1.442       .  S
C834        H840   1.081       .  S
C835        H837   1.081       .  S
C835        N836   1.359       .  A
N836        C838   1.360       .  A
N836        C988   1.445       .  S
C838        H839   1.083       .  S
O843        C859   1.271       .  A
O843       Zn849   1.984       .  S
C844        O860   1.276       .  A
C844        C925   1.501       .  S
O845       Cd852   2.085       .  S
O846        C864   1.271       .  A
O846       Cd855   2.037       .  S
O847        C861   1.273   1_556  A
O847       Cd851   2.066       .  S
O848        C859   1.269       .  A
O848       Cd851   2.025       .  S
Zn849       O860   2.042       .  S
Zn849       O862   2.013       .  S
Zn849       O854   1.938   1_556  S
O850       Cd855   2.072       .  S
Cd851       O853   2.055       .  S
Cd851       O854   1.988   1_556  S
Cd852       O856   2.084       .  S
Cd852       O865   2.044       .  S
O853        C863   1.270   1_556  A
Cd855       O857   2.061       .  S
C858        O862   1.272   1_554  A
C858        C976   1.495       .  S
C859        C886   1.431       .  S
C861       C1216   1.481   1_554  S
C863       C1108   1.491       .  S
C864        O865   1.272       .  A
C864        C867   1.435       .  S
O866        C882   1.276       .  A
O866       Zn872   2.026       .  S
C867        O883   1.271       .  A
C867        O880   1.271       .  A
O868        C881   1.269       .  A
O868       Cd875   2.051       .  S
O869        C887   1.275       .  A
O869       Cd878   2.079       .  S
O870        C884   1.272       .  A
O870       Cd874   2.066       .  S
O871        C882   1.271       .  A
O871       Cd874   2.060       .  S
Zn872       O883   1.983       .  S
Zn872       O885   2.040       .  S
Zn872       O877   1.938       .  S
O873        C884   1.276       .  A
O873       Cd878   2.074       .  S
Cd874       O876   2.039       .  S
Cd874       O877   1.992       .  S
Cd875       O879   2.028       .  S
Cd875       O888   2.061       .  S
Cd875       O877   1.983       .  S
O876        C886   1.271       .  A
O877       Cd878   1.993       .  S
Cd878       O880   2.039       .  S
O879        C886   1.269       .  A
C881        O885   1.277       .  A
C881        C892   1.495       .  S
C882        C940   1.489       .  S
C884       C1045   1.496       .  S
C887        O888   1.272       .  A
C887       C1153   1.485       .  S
C889        C890   1.399       .  A
C889        C894   1.410       .  A
C890        C891   1.400       .  A
C890        H899   1.084       .  S
C891        C892   1.424       .  A
C891        S895   1.801       .  S
C892        C893   1.409       .  A
C893        C894   1.400       .  A
C893        H900   1.083       .  S
C894        S896   1.802       .  S
S895        H898   1.408       .  S
S896        H897   1.407       .  S
C901        C902   1.407       .  A
C901        C906   1.423       .  A
C902        C903   1.405       .  A
C902        H911   1.081       .  S
C903        C904   1.426       .  A
C903        S907   1.807       .  S
C904        C905   1.409       .  A
C905        C906   1.403       .  A
C905        H912   1.082       .  S
C906        S908   1.807       .  S
S907        H910   1.398       .  S
S908        H909   1.401       .  S
C913        C914   1.407       .  A
C913        C918   1.429       .  A
C914        C915   1.401       .  A
C914        H923   1.081       .  S
C915        C916   1.422       .  A
C915        S919   1.806       .  S
C916        C917   1.406       .  A
C917        C918   1.405       .  A
C917        H924   1.082       .  S
C918        S920   1.811       .  S
S919        H922   1.403       .  S
S920        H921   1.396       .  S
C925        C926   1.411       .  A
C926        C927   1.404       .  A
C926        H935   1.083       .  S
C927        C928   1.413       .  A
C927        S931   1.802       .  S
C929        C930   1.400       .  A
C929        H936   1.084       .  S
C930        S932   1.802       .  S
S931        H934   1.407       .  S
S932        H933   1.408       .  S
C937        C938   1.399       .  A
C937        C942   1.408       .  A
C938        C939   1.401       .  A
C938        H947   1.084       .  S
C939        C940   1.422       .  A
C939        S943   1.803       .  S
C940        C941   1.407       .  A
C941        C942   1.397       .  A
C941        H948   1.083       .  S
C942        S944   1.801       .  S
S943        H946   1.407       .  S
S944        H945   1.406       .  S
C949        C950   1.409       .  A
C949        C954   1.420       .  A
C950        C951   1.403       .  A
C950        H959   1.083       .  S
C951        C952   1.423       .  A
C951        S955   1.803       .  S
C952        C953   1.410       .  A
C953        C954   1.402       .  A
C953        H960   1.083       .  S
C954        S956   1.803       .  S
S955        H958   1.398       .  S
S956        H957   1.399       .  S
C961        C962   1.408       .  A
C961        C966   1.423       .  A
C962        C963   1.401       .  A
C962        H971   1.082       .  S
C963        C964   1.422       .  A
C963        S967   1.805       .  S
C964        C965   1.410       .  A
C965        C966   1.404       .  A
C965        H972   1.081       .  S
C966        S968   1.807       .  S
S967        H970   1.399       .  S
S968        H969   1.400       .  S
C973        C978   1.410   1_556  A
C974        C975   1.398       .  A
C974        H983   1.083       .  S
C975        S979   1.803       .  S
C976        C977   1.410       .  A
C977        C978   1.402       .  A
C977        H984   1.083       .  S
C978        S980   1.802       .  S
S979        H982   1.408       .  S
S980        H981   1.407       .  S
C985        C986   1.409       .  A
C985        C990   1.418       .  A
C986        C987   1.402       .  A
C986        H995   1.084       .  S
C987        C988   1.415       .  A
C987        S991   1.802       .  S
C988        C989   1.405       .  A
C989        C990   1.398       .  A
C989        H996   1.084       .  S
C990        S992   1.803       .  S
S991        H994   1.407       .  S
S992        H993   1.408       .  S
C997        C998   1.408       .  A
C997       C1002   1.422       .  A
C998        C999   1.399       .  A
C998       H1007   1.082       .  S
C999       C1000   1.408       .  A
C999       S1003   1.802       .  S
C1000      C1001   1.403       .  A
C1001      C1002   1.403       .  A
C1001      H1008   1.084       .  S
C1002      S1004   1.801   1_455  S
S1003      H1006   1.407       .  S
S1004      H1005   1.408   1_655  S
C1009      C1014   1.419       .  A
C1010      C1011   1.406       .  A
C1010      H1019   1.084   1_545  S
C1011      S1015   1.803       .  S
C1012      C1013   1.399       .  A
C1013      C1014   1.401       .  A
C1013      H1020   1.083       .  S
C1014      S1016   1.800       .  S
S1015      H1018   1.405       .  S
S1016      H1017   1.407       .  S
C1021      C1026   1.420       .  A
C1022      C1023   1.399       .  A
C1022      H1031   1.083       .  S
C1023      S1027   1.802       .  S
C1024      C1025   1.399   1_556  A
C1025      C1026   1.401   1_554  A
C1025      H1032   1.083       .  S
C1026      S1028   1.803   1_556  S
S1027      H1030   1.407       .  S
S1028      H1029   1.408   1_554  S
C1033      C1034   1.404   1_545  A
C1033      C1038   1.412       .  A
C1034      C1035   1.402       .  A
C1034      H1043   1.083       .  S
C1035      C1036   1.413       .  A
C1035      S1039   1.802       .  S
C1036      C1037   1.404   1_565  A
C1037      C1038   1.405       .  A
C1037      H1044   1.082       .  S
C1038      S1040   1.806       .  S
S1039      H1042   1.407       .  S
S1040      H1041   1.407       .  S
C1045      C1046   1.408       .  A
C1045      C1050   1.422       .  A
C1046      C1047   1.402       .  A
C1046      H1055   1.081       .  S
C1047      C1048   1.410       .  A
C1047      S1051   1.802       .  S
C1048      C1049   1.402       .  A
C1049      C1050   1.401       .  A
C1049      H1056   1.083       .  S
C1050      S1052   1.802       .  S
S1051      H1054   1.406       .  S
S1052      H1053   1.408       .  S
C1057      C1058   1.408       .  A
C1057      C1062   1.422       .  A
C1058      C1059   1.401       .  A
C1058      H1067   1.083       .  S
C1059      C1060   1.407       .  A
C1059      S1063   1.802       .  S
C1060      C1061   1.400       .  A
C1061      C1062   1.403       .  A
C1061      H1068   1.084       .  S
C1062      S1064   1.800       .  S
S1063      H1066   1.407   1_565  S
S1064      H1065   1.408       .  S
C1069      C1070   1.402       .  A
C1070      C1071   1.401       .  A
C1070      H1079   1.083       .  S
C1071      C1072   1.411   1_565  A
C1071      S1075   1.802       .  S
C1073      C1074   1.398       .  A
C1073      H1080   1.084       .  S
C1074      S1076   1.801       .  S
S1075      H1078   1.406       .  S
S1076      H1077   1.406   1_545  S
C1081      C1082   1.409       .  A
C1081      C1086   1.427       .  A
C1082      C1083   1.402       .  A
C1082      H1091   1.082       .  S
C1083      C1084   1.421       .  A
C1083      S1087   1.805       .  S
C1084      C1085   1.408       .  A
C1085      C1086   1.405       .  A
C1085      H1092   1.080       .  S
C1086      S1088   1.808       .  S
S1087      H1090   1.397       .  S
S1088      H1089   1.398       .  S
C1093      C1094   1.407       .  A
C1093      C1098   1.423       .  A
C1094      C1095   1.403       .  A
C1094      H1103   1.082       .  S
C1095      C1096   1.424       .  A
C1095      S1099   1.805       .  S
C1096      C1097   1.407       .  A
C1097      C1098   1.403       .  A
C1097      H1104   1.081       .  S
C1098      S1100   1.806       .  S
S1099      H1102   1.397       .  S
S1100      H1101   1.399       .  S
C1105      C1106   1.396   1_554  A
C1106      C1107   1.398       .  A
C1106      H1115   1.084       .  S
C1107      C1108   1.422   1_556  A
C1107      S1111   1.800       .  S
C1109      C1110   1.400       .  A
C1109      H1116   1.083       .  S
C1110      S1112   1.803       .  S
S1111      H1114   1.408       .  S
S1112      H1113   1.406       .  S
C1117      C1122   1.409       .  A
C1118      C1119   1.406       .  A
C1118      H1127   1.083       .  S
C1119      S1123   1.802       .  S
C1120      C1121   1.408       .  A
C1121      C1122   1.400       .  A
C1121      H1128   1.083   1_556  S
C1122      S1124   1.804   1_556  S
S1123      H1126   1.407       .  S
S1124      H1125   1.405   1_554  S
C1129      C1130   1.403       .  A
C1129      C1134   1.411   1_455  A
C1130      C1131   1.400   1_455  A
C1130      H1139   1.083       .  S
C1131      C1132   1.410       .  A
C1131      S1135   1.802   1_655  S
C1132      C1133   1.402       .  A
C1133      C1134   1.399       .  A
C1133      H1140   1.083       .  S
C1134      S1136   1.802       .  S
S1135      H1138   1.407   1_455  S
S1136      H1137   1.407       .  S
C1141      C1142   1.402       .  A
C1141      C1146   1.411       .  A
C1142      C1143   1.400       .  A
C1142      H1151   1.084       .  S
C1143      C1144   1.422       .  A
C1143      S1147   1.802       .  S
C1144      C1145   1.412       .  A
C1145      C1146   1.403       .  A
C1145      H1152   1.083       .  S
C1146      S1148   1.802       .  S
S1147      H1150   1.408       .  S
S1148      H1149   1.407       .  S
C1153      C1154   1.406       .  A
C1153      C1158   1.419       .  A
C1154      C1155   1.400       .  A
C1154      H1163   1.084       .  S
C1155      C1156   1.410       .  A
C1155      S1159   1.802       .  S
C1156      C1157   1.397       .  A
C1157      C1158   1.399       .  A
C1157      H1164   1.084       .  S
C1158      S1160   1.803       .  S
S1159      H1162   1.406       .  S
S1160      H1161   1.408       .  S
C1165      C1170   1.414       .  A
C1166      C1167   1.400       .  A
C1166      H1175   1.082       .  S
C1167      S1171   1.802       .  S
C1168      C1169   1.403   1_554  A
C1169      C1170   1.399   1_655  A
C1169      H1176   1.082       .  S
C1170      S1172   1.798       .  S
S1171      H1174   1.407       .  S
S1172      H1173   1.407       .  S
C1177      C1178   1.409       .  A
C1177      C1182   1.426       .  A
C1178      C1179   1.408       .  A
C1178      H1187   1.080       .  S
C1179      C1180   1.420       .  A
C1179      S1183   1.810       .  S
C1180      C1181   1.406       .  A
C1181      C1182   1.402       .  A
C1181      H1188   1.081       .  S
C1182      S1184   1.810       .  S
S1183      H1186   1.407       .  S
S1184      H1185   1.397       .  S
C1189      C1190   1.408       .  A
C1189      C1194   1.425       .  A
C1190      C1191   1.404       .  A
C1190      H1199   1.083       .  S
C1191      C1192   1.421       .  A
C1191      S1195   1.803       .  S
C1192      C1193   1.407       .  A
C1193      C1194   1.401       .  A
C1193      H1200   1.082       .  S
C1194      S1196   1.806       .  S
S1195      H1198   1.402       .  S
S1196      H1197   1.399       .  S
C1201      C1202   1.400       .  A
C1202      C1203   1.402       .  A
C1202      H1211   1.083       .  S
C1203      C1204   1.423       .  A
C1203      S1207   1.801       .  S
C1205      C1206   1.397       .  A
C1205      H1212   1.083       .  S
C1206      S1208   1.800       .  S
S1207      H1210   1.408       .  S
S1208      H1209   1.407       .  S
C1213      C1218   1.409       .  A
C1214      C1215   1.401       .  A
C1214      H1223   1.084       .  S
C1215      C1216   1.416   1_554  A
C1215      S1219   1.804       .  S
C1217      C1218   1.399       .  A
C1217      H1224   1.084       .  S
C1218      S1220   1.804       .  S
S1219      H1222   1.407   1_554  S
S1220      H1221   1.404       .  S
