geometry optimzed in LAMMPS
_audit_creation_date              2020-11-30 
_audit_creation_method            'lammps2cif' 
_symmetry_space_group_name_H-M    'P1' 
_symmetry_Int_Tables_number       1 
_symmetry_cell_setting            triclinic 
loop_ 
_symmetry_equiv_pos_as_xyz 
  x,y,z 
_cell_length_a                    23.687460540326235 
_cell_length_b                    23.88003531842219 
_cell_length_c                    19.43171809850085 
_cell_angle_alpha                 91.06001378301974 
_cell_angle_beta                  90.58077404866381 
_cell_angle_gamma                 121.36029082648659 
loop_ 
_atom_site_label 
_atom_site_type_symbol 
_atom_site_fract_x 
_atom_site_fract_y 
_atom_site_fract_z 
_atom_site_charge 
C1          C  0.77649494  0.52644655  0.98197324     0.02500
C2          C  0.72825256  0.50871871  0.50842999     0.02500
C3          C  0.43959017  0.15371172  0.48503966     0.02500
C4          C  0.44261751  0.21167109  0.47778517     0.02500
C5          C  0.72691139  0.18434327  0.48671097     0.02500
C6          C  0.76023714  0.22745085  0.98454878     0.02500
C7          C  0.52684195  0.73803146  0.50431123     0.02500
C8          C  0.52495149  0.67986573  0.50349110     0.02500
C9          C  0.17243218  0.43243672  0.00869327     0.02500
C10         C  0.24199079  0.43367925  0.50469491     0.02500
C11         C  0.19298673  0.71965159  0.00722735     0.02500
C12         C  0.24184070  0.78149735  0.51001199     0.02500
O13         O  0.94441139  0.38310386  0.32318654    -0.78200
O14         O  0.02597365  0.44669678  0.11322056    -0.78220
O15         O  0.84645750  0.35784285  0.17854710    -0.78230
O16         O  0.08795544  0.48597287  0.34450850    -0.78170
O17         O  0.91062789  0.38494513  0.08828265    -0.78290
O18         O  0.01497665  0.46652493  0.42585708    -0.78210
O19         O  0.07498547  0.44610395  0.20672048    -0.78200
O20         O  0.84985907  0.37568120  0.31814419    -0.78240
C21         C  0.88450608  0.35277256  0.33827774     1.11490
C22         C  0.06395982  0.43349976  0.14308141     1.11380
C23         C  0.86137416  0.34292446  0.12033649     1.11510
C24         C  0.06668526  0.46865222  0.40612601     1.11390
O25         O  0.02382067  0.57147738  0.36727652    -0.78200
O26         O  0.93969018  0.50448619  0.10320430    -0.78280
O27         O  0.87301675  0.50720153  0.30285788    -0.78210
O28         O  0.09932745  0.57541439  0.16531157    -0.78190
O29         O  0.00326491  0.52777857  0.10663694    -0.78240
O30         O  0.90854958  0.47548223  0.38906297    -0.78210
O31         O  0.10796207  0.61104738  0.29972366    -0.78170
O32         O  0.85564745  0.48623486  0.16477999    -0.78240
Co33       Co  0.98568391  0.47860148  0.34100441     1.51530
Co34       Co  0.95330919  0.44440841  0.16159252     1.51690
Co35       Co  0.86833186  0.43845203  0.24141162     1.51570
Co36       Co  0.08079467  0.52570681  0.25236387     1.51470
O37         O  0.97642927  0.49508181  0.24567904    -1.40130
C38         C  0.07792209  0.61875278  0.34857349     1.11420
C39         C  0.88849192  0.50817549  0.11100410     1.11510
C40         C  0.87714590  0.50160481  0.36654392     1.11450
C41         C  0.06436315  0.57389386  0.11458276     1.11420
O42         O  0.42881466  0.36920424  0.12339859    -0.78200
O43         O  0.43451285  0.47438245  0.39139187    -0.78220
O44         O  0.49706094  0.34405715  0.30595808    -0.78230
O45         O  0.34782000  0.43468439  0.17136681    -0.78170
O46         O  0.44382295  0.37968692  0.36179845    -0.78290
O47         O  0.42680165  0.47198668  0.09571214    -0.78210
O48         O  0.35064865  0.43582273  0.31713432    -0.78200
O49         O  0.49627919  0.34457508  0.16665040    -0.78240
C50         C  0.44986144  0.33108007  0.12466941     1.11490
C51         C  0.37285090  0.44725007  0.37880868     1.11380
C52         C  0.45630796  0.33592329  0.35126599     1.11510
C53         C  0.36702656  0.44901318  0.11007613     1.11390
O54         O  0.54851951  0.55862138  0.16675373    -0.78200
O55         O  0.55681916  0.48828831  0.40974401    -0.78280
O56         O  0.59705243  0.48253954  0.16615378    -0.78210
O57         O  0.46219852  0.56642021  0.31636515    -0.78190
O58         O  0.55283285  0.56480331  0.31411083    -0.78240
O59         O  0.53887083  0.46997141  0.07038478    -0.78210
O60         O  0.46096994  0.56593181  0.17719486    -0.78170
O61         O  0.60566045  0.48240162  0.31471212    -0.78240
Co62       Co  0.49138031  0.46185705  0.15019376     1.51530
Co63       Co  0.50089608  0.46962804  0.33268785     1.51690
Co64       Co  0.53835535  0.41755520  0.23929858     1.51570
Co65       Co  0.40875410  0.49589147  0.24512659     1.51470
O66         O  0.46054731  0.44582354  0.24281721    -1.40130
C67         C  0.51916726  0.58921605  0.15562901     1.11420
C68         C  0.60818857  0.49824823  0.37929738     1.11510
C69         C  0.59091016  0.47881446  0.09987561     1.11450
C70         C  0.52234395  0.59204911  0.33433479     1.11420
O71         O  0.58305689  0.00662243  0.10386441    -0.78200
O72         O  0.57457364  0.92309693  0.36379357    -0.78220
O73         O  0.56495235  0.10492648  0.30326089    -0.78230
O74         O  0.45751496  0.81259663  0.21284269    -0.78170
O75         O  0.61353560  0.05166749  0.32880476    -0.78290
O76         O  0.52568274  0.89132140  0.14487587    -0.78210
O77         O  0.47585098  0.83188925  0.35252666    -0.78200
O78         O  0.59095841  0.07423986  0.18613774    -0.78240
C79         C  0.61020308  0.06441384  0.12781177     1.11490
C80         C  0.53607418  0.86239752  0.37452644     1.11380
C81         C  0.61320577  0.10431648  0.33152649     1.11510
C82         C  0.49401509  0.83224294  0.16114114     1.11390
O83         O  0.44271340  0.92867140  0.13860582    -0.78200
O84         O  0.49232237  0.03112032  0.39091505    -0.78280
O85         O  0.48499704  0.08480677  0.18408517    -0.78210
O86         O  0.38123403  0.87612866  0.35030070    -0.78190
O87         O  0.46194793  0.91119363  0.42678979    -0.78240
O88         O  0.47343987  0.99539207  0.12991662    -0.78210
O89         O  0.36787997  0.85538660  0.21062485    -0.78170
O90         O  0.42592473  0.01034181  0.29978475    -0.78240
Co91       Co  0.53489069  0.97076326  0.18574545     1.51530
Co92       Co  0.53613976  0.97893134  0.37203126     1.51690
Co93       Co  0.50075785  0.02995590  0.23986239     1.51570
Co94       Co  0.42505795  0.85137052  0.28131099     1.51470
O95         O  0.49637370  0.94898913  0.27688232    -1.40130
C96         C  0.38290736  0.88296588  0.15327101     1.11420
C97         C  0.44319446  0.03052294  0.36193201     1.11510
C98         C  0.46854377  0.04757541  0.13032691     1.11570
C99         C  0.40095531  0.88327988  0.41196347     1.11420
C100        C  0.35377159  0.85244693  0.46658724    -0.14490
C101        C  0.28833579  0.82637865  0.45771181    -0.29670
H102        H  0.37369680  0.84521023  0.51373127     0.14530
H103        H  0.26899547  0.83144972  0.40879298     0.15100
C104        C  0.28832041  0.79839016  0.08458389    -0.14490
C105        C  0.33043265  0.86263757  0.10017653    -0.29670
H106        H  0.28687982  0.76244767  0.11905222     0.14530
H107        H  0.33540893  0.89937056  0.06449534     0.15100
C108        C  0.17102701  0.70792422  0.41295262    -0.14490
C109        C  0.10773970  0.67948337  0.39109189    -0.29670
H110        H  0.20558192  0.70104881  0.38298638     0.14530
H111        H  0.07389509  0.68507784  0.42380401     0.15100
C112        C  0.15696239  0.67647574  0.06674062    -0.14490
C113        C  0.09485314  0.62350390  0.06069208    -0.29670
H114        H  0.18262871  0.68514823  0.11582531     0.14530
H115        H  0.06596126  0.61361760  0.01346593     0.15100
C116        C  0.33020739  0.43291986  0.43855445    -0.14490
C117        C  0.27153320  0.42960323  0.43804259    -0.29670
H118        H  0.35390269  0.43446321  0.48725994     0.14530
H119        H  0.25029984  0.43182856  0.38920343     0.15100
C120        C  0.25867196  0.41513874  0.05474238    -0.14490
C121        C  0.32466515  0.44774075  0.05474386    -0.29670
H122        H  0.23209911  0.38754055  0.09931473     0.14530
H123        H  0.35088512  0.47800351  0.01147667     0.15100
C124        C  0.16219776  0.46006690  0.44780118    -0.14490
C125        C  0.10091008  0.44984544  0.45504691    -0.29670
H126        H  0.18804800  0.47868240  0.40003313     0.14530
H127        H  0.07421162  0.42928222  0.50175631     0.15100
C128        C  0.15559814  0.44000703  0.08066008    -0.14490
C129        C  0.09301800  0.40356610  0.10101495    -0.29670
H130        H  0.19017452  0.48476072  0.10934612     0.14530
H131        H  0.05850925  0.36207371  0.06805391     0.15100
C132        C  0.50655843  0.64070267  0.43793492    -0.14490
C133        C  0.54922337  0.64151266  0.39187000    -0.29670
H134        H  0.45382572  0.60632197  0.43003293     0.14530
H135        H  0.60220105  0.67192551  0.40140222     0.15100
C136        C  0.50526647  0.66246542  0.07967627    -0.14490
C137        C  0.54526313  0.64286914  0.10526903    -0.29670
H138        H  0.45676931  0.64305130  0.10145915     0.14530
H139        H  0.59220160  0.65829147  0.08132054     0.15100
C140        C  0.52018258  0.76596944  0.43792782    -0.14490
C141        C  0.55767166  0.83027977  0.42436254    -0.29670
H142        H  0.47819101  0.73411177  0.40409784     0.14530
H143        H  0.60052843  0.86170532  0.45733985     0.15100
C144        C  0.54049867  0.80112554  0.06553795    -0.14490
C145        C  0.49556473  0.78363375  0.11523692    -0.29670
H146        H  0.57927249  0.85230204  0.06158290     0.14530
H147        H  0.45363900  0.73394660  0.11698248     0.15100
C148        C  0.77001441  0.26093172  0.05200756    -0.14490
C149        C  0.82311537  0.27645516  0.09073510    -0.29670
H150        H  0.74723298  0.29019562  0.05759839     0.14530
H151        H  0.85005945  0.25195869  0.07971890     0.15100
C152        C  0.80304600  0.28348515  0.42393460    -0.14490
C153        C  0.85911614  0.30063712  0.39027085    -0.29670
H154        H  0.77185240  0.30163912  0.40671651     0.14530
H155        H  0.89087779  0.28337682  0.40814197     0.15100
C156        C  0.65846953  0.15715781  0.38030373    -0.14490
C157        C  0.70196014  0.15031972  0.41856563    -0.29670
H158        H  0.64842450  0.19550398  0.39348581     0.14530
H159        H  0.71090466  0.11099333  0.40670800     0.15100
C160        C  0.68088844  0.11192373  0.02720884    -0.14490
C161        C  0.65985239  0.12089552  0.08826449    -0.29670
H162        H  0.66397916  0.06167355  0.01106004     0.14530
H163        H  0.67172825  0.16895082  0.10632238     0.15100
C164        C  0.45312727  0.24316072  0.40977941    -0.14490
C165        C  0.42686284  0.28005300  0.39749019    -0.29670
H166        H  0.48992916  0.24462088  0.37571252     0.14530
H167        H  0.39036508  0.27771176  0.43277778     0.15100
C168        C  0.45756072  0.24487527  0.05840894    -0.14490
C169        C  0.42582899  0.27713522  0.07152021    -0.29670
H170        H  0.49727246  0.25260012  0.09329507     0.14530
H171        H  0.38677430  0.27014099  0.03605653     0.15100
C172        C  0.45492324  0.12373845  0.42594020    -0.14490
C173        C  0.41376845  0.06287363  0.39969147    -0.29670
H174        H  0.50639874  0.14982335  0.41089538     0.14530
H175        H  0.36176332  0.03545415  0.41220943     0.15100
C176        C  0.44749867  0.06345366  0.06603117    -0.14490
C177        C  0.44320174  0.11693583  0.06091914    -0.29670
H178        H  0.44363371  0.03453114  0.02057280     0.14530
H179        H  0.44423153  0.14192227  0.10852298     0.15100
C180        C  0.70290636  0.50126880  0.43579385    -0.14490
C181        C  0.67131397  0.53250064  0.41841327    -0.29670
H182        H  0.69518546  0.45927721  0.40504632     0.14530
H183        H  0.67808332  0.57247393  0.45218151     0.15100
C184        C  0.64322870  0.48382606  0.05799143    -0.14490
C185        C  0.69409748  0.54147027  0.03941537    -0.29670
H186        H  0.63317688  0.43895525  0.03131846     0.14530
H187        H  0.70191518  0.58749307  0.06044573     0.15100
C188        C  0.86684027  0.53384351  0.05469025    -0.14490
C189        C  0.80542867  0.52389255  0.05004116    -0.29670
H190        H  0.89870769  0.55199716  0.01052277     0.14530
H191        H  0.77386403  0.50646135  0.09446211     0.15100
C192        C  0.82416288  0.49652866  0.47553564    -0.14490
C193        C  0.84131996  0.52150791  0.41288938    -0.29670
H194        H  0.84152141  0.46503744  0.49342386     0.14530
H195        H  0.82620187  0.55427399  0.39388918     0.15100
C196        C  0.78531877  0.51061100  0.52535616     0.02500
C197        C  0.72750727  0.54000735  0.97649933     0.02500
C198        C  0.44402503  0.14658852  0.99337263     0.02500
C199        C  0.44693783  0.20524365  0.99268273     0.02500
C200        C  0.71613188  0.16225839  0.97333524     0.02500
C201        C  0.78272193  0.24525138  0.48898256     0.02500
C202        C  0.52893771  0.75687690  0.00552735     0.02500
C203        C  0.51406381  0.69395980  0.01190983     0.02500
C204        C  0.19635406  0.45190593  0.50853064     0.02500
C205        C  0.22263263  0.42229802  0.99530245     0.02500
C206        C  0.18728391  0.72401906  0.48793171     0.02500
C207        C  0.25463161  0.77507961  0.01498543     0.02500
O208        O  0.92099152  0.43071515  0.90500679    -0.78200
O209        O  0.04824465  0.45189935  0.65319764    -0.78220
O210        O  0.89339529  0.36011105  0.67918028    -0.78230
O211        O  0.05891555  0.43029322  0.79998704    -0.78170
O212        O  0.93529829  0.44226050  0.60995269    -0.78290
O213        O  0.05168696  0.47973081  0.89428396    -0.78210
O214        O  0.14704465  0.51016882  0.70420072    -0.78200
O215        O  0.88772052  0.35543747  0.82083816    -0.78240
C216        C  0.89307574  0.37105606  0.88395271     1.11490
C217        C  0.10887500  0.46711943  0.65976284     1.11380
C218        C  0.90224520  0.38146919  0.61877700     1.11510
C219        C  0.06667473  0.44102645  0.86452190     1.11390
O220        O  0.06838633  0.60192143  0.84030236    -0.78200
O221        O  0.95828611  0.55573163  0.68121428    -0.78280
O222        O  0.84847021  0.45084763  0.82435056    -0.78210
O223        O  0.09877281  0.59204113  0.69420473    -0.78190
O224        O  0.04740853  0.55405840  0.59379294    -0.78240
O225        O  0.93686768  0.54875759  0.84229966    -0.78210
O226        O  0.13466563  0.56777094  0.81896808    -0.78170
O227        O  0.86185075  0.46268793  0.68626486    -0.78240
Co228      Co  0.99370275  0.51454798  0.86485019     1.51530
Co229      Co  0.00534261  0.50763416  0.67346659     1.51690
Co230      Co  0.87966451  0.41055911  0.75344280     1.51570
Co231      Co  0.07243602  0.50525914  0.74548549     1.51470
O232        O  0.97878044  0.47812343  0.76808610    -1.40130
C233        C  0.12488681  0.60970146  0.84738750     1.11420
C234        C  0.89644360  0.52233007  0.66869591     1.11510
C235        C  0.87537604  0.51078332  0.84360389     1.11450
C236        C  0.09251664  0.60079768  0.62990179     1.11420
O237        O  0.38951276  0.32214169  0.64647314    -0.78200
O238        O  0.38555190  0.41109006  0.90783781    -0.78220
O239        O  0.48947789  0.32930943  0.80063088    -0.78230
O240        O  0.39002701  0.51100071  0.69949783    -0.78170
O241        O  0.46699074  0.37853044  0.88157802    -0.78290
O242        O  0.34658113  0.40847399  0.67029268    -0.78210
O243        O  0.35922384  0.44672244  0.81725627    -0.78200
O244        O  0.48699718  0.33242308  0.66065292    -0.78240
C245        C  0.42807878  0.30130101  0.63605809     1.11490
C246        C  0.34400123  0.41963605  0.87661331     1.11380
C247        C  0.48024086  0.33648115  0.86311345     1.11510
C248        C  0.34531839  0.46048923  0.66759343     1.11390
O249        O  0.47044725  0.51350442  0.61515144    -0.78200
O250        O  0.52500808  0.48976214  0.86574868    -0.78280
O251        O  0.58557611  0.47092628  0.66788130    -0.78210
O252        O  0.45534296  0.57633827  0.82055577    -0.78190
O253        O  0.49020812  0.51683359  0.87213303    -0.78240
O254        O  0.50748227  0.42642125  0.58726998    -0.78210
O255        O  0.52700466  0.56847685  0.71038937    -0.78170
O256        O  0.59140727  0.46639237  0.80701660    -0.78240
Co257      Co  0.42869755  0.41735495  0.63584656     1.51530
Co258      Co  0.43302804  0.42243235  0.82625294     1.51690
Co259      Co  0.53397975  0.40297251  0.73445578     1.51570
Co260      Co  0.45098328  0.50596074  0.76730285     1.51470
O261        O  0.46717769  0.43412322  0.73261725    -1.40130
C262        C  0.51449813  0.56667813  0.64589546     1.11420
C263        C  0.58208162  0.49639021  0.85543932     1.11510
C264        C  0.56816313  0.45695380  0.60551915     1.11450
C265        C  0.48421059  0.56802329  0.87130612     1.11420
O266        O  0.53901150  0.99170379  0.57026503    -0.78200
O267        O  0.57651641  0.92173458  0.83697684    -0.78220
O268        O  0.57225781  0.10516442  0.78220923    -0.78230
O269        O  0.47469781  0.82020122  0.69121274    -0.78170
O270        O  0.61449415  0.04598447  0.80174429    -0.78290
O271        O  0.46970992  0.87813187  0.60941248    -0.78210
O272        O  0.48047046  0.82988800  0.83252271    -0.78200
O273        O  0.58528631  0.06199022  0.65631557    -0.78240
C274        C  0.58650434  0.04547689  0.59275220     1.11490
C275        C  0.54017599  0.86294491  0.85391105     1.11380
C276        C  0.61865576  0.10034636  0.80780216     1.11510
C277        C  0.47505552  0.83128903  0.62787921     1.11390
O278        O  0.41237848  0.93429488  0.64029436    -0.78200
O279        O  0.50004900  0.03355397  0.87504740    -0.78280
O280        O  0.49311171  0.09572723  0.67211863    -0.78210
O281        O  0.37798936  0.85841402  0.83388757    -0.78190
O282        O  0.46396845  0.90994197  0.90646243    -0.78240
O283        O  0.44473749  0.99483473  0.62626731    -0.78210
O284        O  0.36158073  0.83852823  0.69335447    -0.78170
O285        O  0.43355602  0.02128262  0.78717305    -0.78240
Co286      Co  0.50798029  0.96246164  0.65971279     1.51530
Co287      Co  0.53803549  0.97700225  0.84942780     1.51690
Co288      Co  0.50264371  0.03251357  0.72143043     1.51570
Co289      Co  0.42775994  0.84452777  0.76148628     1.51470
O290        O  0.48945083  0.94582651  0.75797445    -1.40130
C291        C  0.36043707  0.87819953  0.65202038     1.11420
C292        C  0.45226349  0.03762931  0.84987272     1.11510
C293        C  0.45584612  0.05442722  0.62572276     1.11570
C294        C  0.40199595  0.87311717  0.89463067     1.11420
C295        C  0.36003008  0.84150660  0.95373711    -0.14490
C296        C  0.29345513  0.81033090  0.95280830    -0.29670
H297        H  0.38646606  0.84151713  0.99964130     0.14530
H298        H  0.26763877  0.80806629  0.90533984     0.15100
C299        C  0.26611691  0.79486842  0.58324161    -0.14490
C300        C  0.30111674  0.85708159  0.60849066    -0.29670
H301        H  0.26987318  0.75675881  0.60870817     0.14530
H302        H  0.29916218  0.89517251  0.58072161     0.15100
C303        C  0.16044251  0.69614125  0.93788020    -0.14490
C304        C  0.17433896  0.65894097  0.89712464    -0.29670
H305        H  0.11525664  0.69633599  0.92861690     0.14530
H306        H  0.21791940  0.65643546  0.90880691     0.15100
C307        C  0.14851286  0.66571508  0.53155016    -0.14490
C308        C  0.13523217  0.66472768  0.59862425    -0.29670
H309        H  0.12705397  0.61858222  0.50409689     0.14530
H310        H  0.15389941  0.70906672  0.63000512     0.15100
C311        C  0.27831715  0.39320835  0.90804912    -0.14490
C312        C  0.25236124  0.43019367  0.92507730    -0.29670
H313        H  0.26268612  0.34959657  0.93786910     0.14530
H314        H  0.26763574  0.47526497  0.89828013     0.15100
C315        C  0.26703654  0.41986138  0.56915063    -0.14490
C316        C  0.30249394  0.46691165  0.61731189    -0.29670
H317        H  0.26589637  0.37382201  0.57037238     0.14530
H318        H  0.30876258  0.51506969  0.61285500     0.15100
C319        C  0.14311431  0.45456755  0.95636378    -0.14490
C320        C  0.10189663  0.41628589  0.90497700    -0.29670
H321        H  0.14870715  0.50208486  0.96716953     0.14530
H322        H  0.09541051  0.36874160  0.89254554     0.15100
C323        C  0.18513067  0.47476280  0.57546821    -0.14490
C324        C  0.13319494  0.43600817  0.61354926    -0.29670
H325        H  0.21337904  0.52737788  0.58627554     0.14530
H326        H  0.10073241  0.38467460  0.59848510     0.15100
C327        C  0.48687038  0.64889947  0.95104430    -0.14490
C328        C  0.51388493  0.61536246  0.92894533    -0.29670
H329        H  0.44373666  0.64322711  0.92401834     0.14530
H330        H  0.55527238  0.61857923  0.95730913     0.15100
C331        C  0.50430440  0.63817301  0.56535942    -0.14490
C332        C  0.54464717  0.62712367  0.60486781    -0.29670
H333        H  0.45115117  0.60641162  0.57083518     0.14530
H334        H  0.59800532  0.65769553  0.60153494     0.15100
C335        C  0.51888893  0.77918643  0.93773387    -0.14490
C336        C  0.56226280  0.83680338  0.90983274    -0.29670
H337        H  0.47057826  0.74878133  0.91302791     0.14530
H338        H  0.61070467  0.86819750  0.93397054     0.15100
C339        C  0.51942505  0.76719067  0.57045122    -0.14490
C340        C  0.47805915  0.79004122  0.57231508    -0.29670
H341        H  0.54768089  0.77019438  0.61622153     0.14530
H342        H  0.45014989  0.78593967  0.52577811     0.15100
C343        C  0.81747343  0.27931643  0.55569784    -0.14490
C344        C  0.87294825  0.33906293  0.55686716    -0.29670
H345        H  0.79674315  0.25699847  0.60438593     0.14530
H346        H  0.89449376  0.36289059  0.50909695     0.15100
C347        C  0.79769725  0.27123969  0.92673796    -0.14490
C348        C  0.86155080  0.31932767  0.93411135    -0.29670
H349        H  0.77178500  0.26730724  0.87886807     0.14530
H350        H  0.88982881  0.32445021  0.98009107     0.15100
C351        C  0.66416739  0.14876668  0.85967318    -0.14490
C352        C  0.69942522  0.13403966  0.90237046    -0.29670
H353        H  0.65771527  0.18954686  0.87254892     0.14530
H354        H  0.70123324  0.09008036  0.89239771     0.15100
C355        C  0.68712679  0.14881465  0.54906728    -0.14490
C356        C  0.64092562  0.08396529  0.54458867    -0.29670
H357        H  0.69003460  0.17640279  0.59532679     0.14530
H358        H  0.63772151  0.05652724  0.49805676     0.15100
C359        C  0.44870815  0.23570338  0.92561114    -0.14490
C360        C  0.48895000  0.30031997  0.91803954    -0.29670
H361        H  0.41519191  0.20541793  0.88379995     0.14530
H362        H  0.52165062  0.33005429  0.96061925     0.15100
C363        C  0.45565413  0.25592468  0.53860419    -0.14490
C364        C  0.40980776  0.24848529  0.58389561    -0.29670
H365        H  0.50490747  0.29957198  0.54234085     0.14530
H366        H  0.35871753  0.20885511  0.57693992     0.15100
C367        C  0.46343268  0.12305947  0.93084376    -0.14490
C368        C  0.42304063  0.06691612  0.89451697    -0.29670
H369        H  0.51601723  0.14945199  0.92048138     0.14530
H370        H  0.37007239  0.04019326  0.90217927     0.15100
C371        C  0.42658761  0.07164312  0.56928598    -0.14490
C372        C  0.44861825  0.13409667  0.55476589    -0.29670
H373        H  0.39377858  0.03257591  0.53319003     0.14530
H374        H  0.48126813  0.17237916  0.59184547     0.15100
C375        C  0.68992971  0.52943230  0.90984688    -0.14490
C376        C  0.63644387  0.53576795  0.90572752    -0.29670
H377        H  0.69937666  0.50617092  0.86668078     0.14530
H378        H  0.62605635  0.55973720  0.94745625     0.15100
C379        C  0.61672273  0.46735670  0.55379946    -0.14490
C380        C  0.68275982  0.50459642  0.56394089    -0.29670
H381        H  0.59629226  0.43908990  0.50612700     0.14530
H382        H  0.70301553  0.52943859  0.61344420     0.15100
C383        C  0.86711036  0.54752045  0.62037581    -0.14490
C384        C  0.80380355  0.50946015  0.59833819    -0.29670
H385        H  0.90101484  0.58965475  0.59062129     0.14530
H386        H  0.76901683  0.46758446  0.62788138     0.15100
C387        C  0.79209432  0.49726976  0.92305716    -0.14490
C388        C  0.83769369  0.53528303  0.87837122    -0.29670
H389        H  0.77732734  0.44602396  0.92655010     0.14530
H390        H  0.85775400  0.58787615  0.88054464     0.15100
loop_ 
_geom_bond_atom_site_label_1 
_geom_bond_atom_site_label_2 
_geom_bond_distance 
_geom_bond_site_symmetry_2 
_ccdc_geom_bond_type 
C1          C189   1.500   1_556  S
C1          C387   1.476       .  S
C1          C197   1.361       .  D
C2          C180   1.499       .  S
C2          C380   1.501       .  S
C2          C196   1.365       .  D
C3          C172   1.487       .  S
C3          C372   1.491       .  S
C3            C4   1.358       .  D
C4          C164   1.491       .  S
C4          C363   1.488       .  S
C5          C157   1.486       .  S
C5          C355   1.518       .  S
C5          C201   1.364       .  D
C6          C148   1.474   1_556  S
C6          C347   1.497       .  S
C6          C200   1.361       .  D
C7          C140   1.507       .  S
C7          C339   1.505       .  S
C7            C8   1.366       .  D
C8          C132   1.486       .  S
C8          C331   1.492       .  S
C9          C128   1.491       .  S
C9          C319   1.478   1_554  S
C9          C205   1.358   1_554  D
C10         C117   1.504       .  S
C10         C315   1.495       .  S
C10         C204   1.362       .  D
C11         C112   1.509       .  S
C11         C303   1.492   1_554  S
C11         C207   1.372       .  D
C12         C101   1.493       .  S
C12         C299   1.494       .  S
C12         C206   1.363       .  D
O13          C21   1.253       .  A
O13         Co33   1.980       .  S
O14          C22   1.240       .  A
O14         Co34   1.946   1_455  S
O15          C23   1.287       .  A
O15         Co35   2.080       .  S
O16          C24   1.293       .  A
O16         Co36   2.088       .  S
O17          C23   1.255       .  A
O17         Co34   1.863       .  S
O18          C24   1.263       .  A
O18         Co33   1.867   1_455  S
O19          C22   1.259       .  A
O19         Co36   2.020       .  S
O20          C21   1.263       .  A
O20         Co35   2.019       .  S
C21         C153   1.487       .  S
C22         C129   1.468       .  S
C23         C149   1.459       .  S
C24         C125   1.463       .  S
O25          C38   1.252       .  A
O25         Co33   1.964   1_455  S
O26          C39   1.271       .  A
O26         Co34   1.996       .  S
O27          C40   1.255       .  A
O27         Co35   1.967       .  S
O28          C41   1.269       .  A
O28         Co36   2.003       .  S
O29          C41   1.289       .  A
O29         Co34   2.039   1_455  S
O30          C40   1.273       .  A
O30         Co33   2.028       .  S
O31          C38   1.259       .  A
O31         Co36   1.992       .  S
O32          C39   1.259       .  A
O32         Co35   2.005       .  S
Co33         O37   1.935       .  S
Co34         O37   1.911       .  S
Co35         O37   2.186       .  S
Co36         O37   2.184   1_455  S
C38         C109   1.471       .  S
C39         C188   1.475       .  S
C40         C193   1.475       .  S
C41         C113   1.481       .  S
O42          C50   1.245       .  A
O42         Co62   1.973       .  S
O43          C51   1.271       .  A
O43         Co63   2.001       .  S
O44          C52   1.254       .  A
O44         Co64   2.009       .  S
O45          C53   1.267       .  A
O45         Co65   1.990       .  S
O46          C52   1.240       .  A
O46         Co63   1.949       .  S
O47          C53   1.261       .  A
O47         Co62   1.970       .  S
O48          C51   1.270       .  A
O48         Co65   1.992       .  S
O49          C50   1.258       .  A
O49         Co64   2.024       .  S
C50         C169   1.492       .  S
C51         C116   1.471       .  S
C52         C165   1.470       .  S
C53         C121   1.452       .  S
O54          C67   1.263       .  A
O54         Co62   1.996       .  S
O55          C68   1.267       .  A
O55         Co63   1.875       .  S
O56          C69   1.291       .  A
O56         Co64   2.059       .  S
O57          C70   1.265       .  A
O57         Co65   2.004       .  S
O58          C70   1.259       .  A
O58         Co63   1.985       .  S
O59          C69   1.266       .  A
O59         Co62   1.878       .  S
O60          C67   1.268       .  A
O60         Co65   2.008       .  S
O61          C68   1.296       .  A
O61         Co64   2.094       .  S
Co62         O66   1.918       .  S
Co63         O66   1.911       .  S
Co64         O66   2.270       .  S
Co65         O66   2.112       .  S
C67         C137   1.488       .  S
C68         C181   1.471       .  S
C69         C184   1.443       .  S
C70         C133   1.485       .  S
O71          C79   1.257       .  A
O71         Co91   1.907   1_545  S
O72          C80   1.271       .  A
O72         Co92   1.972       .  S
O73          C81   1.270       .  A
O73         Co93   2.020       .  S
O74          C82   1.261       .  A
O74         Co94   1.984       .  S
O75          C81   1.261       .  A
O75         Co92   1.963   1_545  S
O76          C82   1.254       .  A
O76         Co91   1.946       .  S
O77          C80   1.282       .  A
O77         Co94   2.038       .  S
O78          C79   1.288       .  A
O78         Co93   2.123       .  S
C79         C161   1.483       .  S
C80         C141   1.488       .  S
C81         C156   1.472       .  S
C82         C145   1.467       .  S
O83          C96   1.300       .  A
O83         Co91   2.063       .  S
O84          C97   1.281       .  A
O84         Co92   2.025   1_545  S
O85          C98   1.277       .  A
O85         Co93   1.893       .  S
O86          C99   1.257       .  A
O86         Co94   1.965       .  S
O87          C99   1.264       .  A
O87         Co92   1.995       .  S
O88          C98   1.310   1_565  A
O88         Co91   2.127       .  S
O89          C96   1.262       .  A
O89         Co94   1.958       .  S
O90          C97   1.273       .  A
O90         Co93   1.979       .  S
Co91         O95   1.952       .  S
Co92         O95   2.008       .  S
Co93         O95   2.027   1_545  S
Co94         O95   2.051       .  S
C96         C105   1.474       .  S
C97         C173   1.473       .  S
C98         C176   1.468       .  S
C99         C100   1.454       .  S
C100        C101   1.344       .  D
C100        H102   1.083       .  S
C101        H103   1.087       .  S
C104        C207   1.505       .  S
C104        C105   1.351       .  D
C104        H106   1.085       .  S
C105        H107   1.087       .  S
C108        C206   1.494       .  S
C108        C109   1.344       .  D
C108        H110   1.087       .  S
C109        H111   1.088       .  S
C112        C113   1.354       .  D
C112        H114   1.083       .  S
C113        H115   1.085       .  S
C116        C117   1.350       .  D
C116        H118   1.086       .  S
C117        H119   1.085       .  S
C120        C205   1.494   1_554  S
C120        C121   1.335       .  D
C120        H122   1.087       .  S
C121        H123   1.087       .  S
C124        C204   1.496       .  S
C124        C125   1.350       .  D
C124        H126   1.085       .  S
C125        H127   1.082       .  S
C128        C129   1.339       .  D
C128        H130   1.087       .  S
C129        H131   1.088       .  S
C132        C133   1.350       .  D
C132        H134   1.087       .  S
C133        H135   1.085       .  S
C136        C203   1.491       .  S
C136        C137   1.351       .  D
C136        H138   1.085       .  S
C137        H139   1.086       .  S
C140        C141   1.348       .  D
C140        H142   1.087       .  S
C141        H143   1.086       .  S
C144        C202   1.483       .  S
C144        C145   1.346       .  D
C144        H146   1.086       .  S
C145        H147   1.082       .  S
C148        C149   1.331       .  D
C148        H150   1.087       .  S
C149        H151   1.087       .  S
C152        C201   1.504       .  S
C152        C153   1.349       .  D
C152        H154   1.086       .  S
C153        H155   1.086       .  S
C156        C157   1.343       .  D
C156        H158   1.086       .  S
C157        H159   1.086       .  S
C160        C200   1.502   1_554  S
C160        C161   1.347       .  D
C160        H162   1.087       .  S
C161        H163   1.080       .  S
C164        C165   1.340       .  D
C164        H166   1.086       .  S
C165        H167   1.088       .  S
C168        C199   1.514   1_554  S
C168        C169   1.350       .  D
C168        H170   1.086       .  S
C169        H171   1.087       .  S
C172        C173   1.346       .  D
C172        H174   1.088       .  S
C173        H175   1.085       .  S
C176        C177   1.338       .  D
C176        H178   1.084       .  S
C177        C198   1.498   1_554  S
C177        H179   1.085       .  S
C180        C181   1.347       .  D
C180        H182   1.087       .  S
C181        H183   1.088       .  S
C184        C185   1.333       .  D
C184        H186   1.089       .  S
C185        C197   1.473   1_554  S
C185        H187   1.086       .  S
C188        C189   1.348       .  D
C188        H190   1.087       .  S
C189        H191   1.086       .  S
C192        C196   1.492       .  S
C192        C193   1.337       .  D
C192        H194   1.088       .  S
C193        H195   1.085       .  S
C196        C384   1.485       .  S
C197        C375   1.505       .  S
C198        C367   1.503       .  S
C198        C199   1.366       .  D
C199        C359   1.495       .  S
C200        C352   1.480       .  S
C201        C343   1.504       .  S
C202        C335   1.492   1_554  S
C202        C203   1.362       .  D
C203        C327   1.479   1_554  S
C204        C323   1.481       .  S
C205        C312   1.511       .  S
C206        C307   1.493       .  S
C207        C296   1.506   1_554  S
O208        C216   1.275       .  A
O208       Co228   2.020       .  S
O209        C217   1.289       .  A
O209       Co229   2.087       .  S
O210        C218   1.264       .  A
O210       Co230   1.998       .  S
O211        C219   1.267       .  A
O211       Co231   1.977       .  S
O212        C218   1.256       .  A
O212       Co229   1.976   1_655  S
O213        C219   1.281       .  A
O213       Co228   2.024   1_455  S
O214        C217   1.266       .  A
O214       Co231   1.897       .  S
O215        C216   1.261       .  A
O215       Co230   1.950       .  S
C216        C348   1.460       .  S
C217        C324   1.457       .  S
C218        C344   1.470       .  S
C219        C320   1.476       .  S
O220        C233   1.257       .  A
O220       Co228   1.981   1_455  S
O221        C234   1.269       .  A
O221       Co229   1.978   1_655  S
O222        C235   1.273       .  A
O222       Co230   2.020       .  S
O223        C236   1.290       .  A
O223       Co231   2.102       .  S
O224        C236   1.263       .  A
O224       Co229   1.888       .  S
O225        C235   1.254       .  A
O225       Co228   1.954       .  S
O226        C233   1.259       .  A
O226       Co231   2.007       .  S
O227        C234   1.275       .  A
O227       Co230   2.007       .  S
Co228       O232   2.006       .  S
Co229       O232   1.971   1_455  S
Co230       O232   2.055       .  S
Co231       O232   2.017   1_455  S
C233        C304   1.480       .  S
C234        C383   1.473       .  S
C235        C388   1.462       .  S
C236        C308   1.471       .  S
O237        C245   1.263       .  A
O237       Co257   1.974       .  S
O238        C246   1.257       .  A
O238       Co258   1.894       .  S
O239        C247   1.260       .  A
O239       Co259   2.010       .  S
O240        C248   1.261       .  A
O240       Co260   1.996       .  S
O241        C247   1.246       .  A
O241       Co258   1.950       .  S
O242        C248   1.260       .  A
O242       Co257   1.969       .  S
O243        C246   1.293       .  A
O243       Co260   2.136       .  S
O244        C245   1.274       .  A
O244       Co259   2.015       .  S
C245        C364   1.477       .  S
C246        C311   1.484       .  S
C247        C360   1.464       .  S
C248        C316   1.468       .  S
O249        C262   1.280       .  A
O249       Co257   2.022       .  S
O250        C263   1.295       .  A
O250       Co258   2.048       .  S
O251        C264   1.258       .  A
O251       Co259   1.961       .  S
O252        C265   1.271       .  A
O252       Co260   1.913       .  S
O253        C265   1.302       .  A
O253       Co258   2.106       .  S
O254        C264   1.270       .  A
O254       Co257   2.011       .  S
O255        C262   1.280       .  A
O255       Co260   1.999       .  S
O256        C263   1.261       .  A
O256       Co259   1.967       .  S
Co257       O261   2.021       .  S
Co258       O261   1.964       .  S
Co259       O261   2.070       .  S
Co260       O261   2.047       .  S
C262        C332   1.487       .  S
C263        C376   1.476       .  S
C264        C379   1.459       .  S
C265        C328   1.462       .  S
O266        C274   1.253   1_565  A
O266       Co286   1.894       .  S
O267        C275   1.259       .  A
O267       Co287   1.969       .  S
O268        C276   1.261       .  A
O268       Co288   2.008       .  S
O269        C277   1.263       .  A
O269       Co289   2.028       .  S
O270        C276   1.253       .  A
O270       Co287   1.959   1_545  S
O271        C277   1.248       .  A
O271       Co286   1.960       .  S
O272        C275   1.269       .  A
O272       Co289   2.006       .  S
O273        C274   1.295       .  A
O273       Co288   2.140       .  S
C274        C356   1.485       .  S
C275        C336   1.482       .  S
C276        C351   1.467       .  S
C277        C340   1.475       .  S
O278        C291   1.289       .  A
O278       Co286   2.028       .  S
O279        C292   1.279       .  A
O279       Co287   2.032   1_545  S
O280        C293   1.269       .  A
O280       Co288   1.911       .  S
O281        C294   1.266       .  A
O281       Co289   1.975       .  S
O282        C294   1.274       .  A
O282       Co287   2.013       .  S
O283        C293   1.306   1_565  A
O283       Co286   2.114       .  S
O284        C291   1.264       .  A
O284       Co289   1.987       .  S
O285        C292   1.275       .  A
O285       Co288   1.995       .  S
Co286       O290   1.965       .  S
Co287       O290   2.014       .  S
Co288       O290   2.067   1_545  S
Co289       O290   2.079       .  S
C291        C300   1.472       .  S
C292        C368   1.488       .  S
C293        C371   1.466       .  S
C294        C295   1.467       .  S
C295        C296   1.348       .  D
C295        H297   1.085       .  S
C296        H298   1.086       .  S
C299        C300   1.348       .  D
C299        H301   1.087       .  S
C300        H302   1.087       .  S
C303        C304   1.345       .  D
C303        H305   1.086       .  S
C304        H306   1.087       .  S
C307        C308   1.342       .  D
C307        H309   1.089       .  S
C308        H310   1.082       .  S
C311        C312   1.351       .  D
C311        H313   1.088       .  S
C312        H314   1.086       .  S
C315        C316   1.344       .  D
C315        H317   1.086       .  S
C316        H318   1.085       .  S
C319        C320   1.343       .  D
C319        H321   1.088       .  S
C320        H322   1.086       .  S
C323        C324   1.333       .  D
C323        H325   1.088       .  S
C324        H326   1.087       .  S
C327        C328   1.327       .  D
C327        H329   1.087       .  S
C328        H330   1.086       .  S
C331        C332   1.352       .  D
C331        H333   1.088       .  S
C332        H334   1.085       .  S
C335        C336   1.345       .  D
C335        H337   1.086       .  S
C336        H338   1.086       .  S
C339        C340   1.347       .  D
C339        H341   1.086       .  S
C340        H342   1.087       .  S
C343        C344   1.345       .  D
C343        H345   1.084       .  S
C344        H346   1.083       .  S
C347        C348   1.345       .  D
C347        H349   1.084       .  S
C348        H350   1.077       .  S
C351        C352   1.346       .  D
C351        H353   1.087       .  S
C352        H354   1.087       .  S
C355        C356   1.354       .  D
C355        H357   1.085       .  S
C356        H358   1.085       .  S
C359        C360   1.339       .  D
C359        H361   1.087       .  S
C360        H362   1.087       .  S
C363        C364   1.345       .  D
C363        H365   1.087       .  S
C364        H366   1.086       .  S
C367        C368   1.352       .  D
C367        H369   1.087       .  S
C368        H370   1.085       .  S
C371        C372   1.336       .  D
C371        H373   1.085       .  S
C372        H374   1.087       .  S
C375        C376   1.354       .  D
C375        H377   1.085       .  S
C376        H378   1.086       .  S
C379        C380   1.348       .  D
C379        H381   1.084       .  S
C380        H382   1.087       .  S
C383        C384   1.346       .  D
C383        H385   1.087       .  S
C384        H386   1.087       .  S
C387        C388   1.331       .  D
C387        H389   1.087       .  S
C388        H390   1.087       .  S
