geometry optimzed in LAMMPS
_audit_creation_date              2020-11-30 
_audit_creation_method            'lammps2cif' 
_symmetry_space_group_name_H-M    'P1' 
_symmetry_Int_Tables_number       1 
_symmetry_cell_setting            triclinic 
loop_ 
_symmetry_equiv_pos_as_xyz 
  x,y,z 
_cell_length_a                    49.41725043 
_cell_length_b                    51.70258498751282 
_cell_length_c                    55.05678643163036 
_cell_angle_alpha                 90.20350901197031 
_cell_angle_beta                  88.77040733084209 
_cell_angle_gamma                 119.6448529622766 
loop_ 
_atom_site_label 
_atom_site_type_symbol 
_atom_site_fract_x 
_atom_site_fract_y 
_atom_site_fract_z 
_atom_site_charge 
O1          O  0.34830029  0.12036215  0.03257892    -0.81000
O2          O  0.35770799  0.23500268  0.98297580    -0.65700
O3          O  0.34216182  0.17126824  0.02731009    -1.12300
C4          C  0.26774357  0.11380303  0.96760293     1.05900
O5          O  0.30717205  0.21652350  0.98425467    -0.78900
O6          O  0.25940076  0.16330553  0.99568323    -0.66500
Ni7        Ni  0.37412102  0.16289836  0.03563356     1.34900
C8          C  0.25879655  0.15553460  0.01753746     0.84600
O9          O  0.38425647  0.23266531  0.02567222    -0.79500
O10         O  0.40311655  0.20439074  0.04017483    -0.89700
C11         C  0.33381714  0.23721785  0.97771149     0.84200
O12         O  0.38942107  0.16421066  0.00351041    -0.67900
O13         O  0.27395399  0.13845338  0.95753727    -0.87200
C14         C  0.39553719  0.18271679  0.98634931     0.85000
C15         C  0.40462155  0.22958560  0.03738031     1.06600
H16         H  0.33223732  0.16806243  0.97286381     0.38400
O17         O  0.32173497  0.17236565  0.98590162    -1.09900
O18         O  0.27921329  0.14972505  0.02575765    -0.66500
Ni19       Ni  0.30896572  0.14125419  0.00892724     1.26300
O20         O  0.38488032  0.20074544  0.98611041    -0.66800
O21         O  0.27681439  0.11182666  0.98877176    -0.79100
C22         C  0.31953703  0.10331641  0.03754428     0.84400
O23         O  0.29938016  0.11088824  0.03275982    -0.66200
Ni24       Ni  0.29098106  0.17762005  0.97086445     1.27400
Ni25       Ni  0.35261762  0.20357849  0.00514622     1.26100
H26         H  0.33384477  0.17486452  0.04217200     0.38900
O27         O  0.40590878  0.18389274  0.51228175    -0.81000
O28         O  0.30343601  0.19750947  0.46972587    -0.65700
O29         O  0.34769508  0.17693816  0.51428951    -1.12300
C30         C  0.31173607  0.09187373  0.46397686     1.05900
O31         O  0.26319614  0.15338250  0.47637183    -0.78900
O32         O  0.26537848  0.11053004  0.50149003    -0.66500
Ni33       Ni  0.38744480  0.20620980  0.52486999     1.34900
C34         C  0.27937203  0.10699180  0.51901847     0.84600
O35         O  0.33232271  0.22215152  0.51129821    -0.79500
O36         O  0.36998086  0.22967170  0.53758105    -0.89700
C37         C  0.27495974  0.17902032  0.46669736     0.84200
O38         O  0.40299713  0.23118461  0.49682133    -0.67900
O39         O  0.28845848  0.09588292  0.46196588    -0.87200
C40         C  0.39130901  0.23111845  0.47658848     0.85000
C41         C  0.34879832  0.23473006  0.52978038     1.06600
H42         H  0.33075313  0.15961032  0.45972228     0.38400
O43         O  0.31992091  0.15383708  0.47528965    -1.09900
O44         O  0.30879053  0.11701430  0.51852182    -0.66500
Ni45       Ni  0.34300825  0.14290223  0.49630410     1.26300
O46         O  0.36271300  0.21379009  0.47197189    -0.66800
O47         O  0.33559229  0.10872427  0.47675068    -0.79100
C48         C  0.39814634  0.15828168  0.52062897     0.84400
O49         O  0.37065750  0.13669956  0.51713459    -0.66200
Ni50       Ni  0.27755498  0.12565401  0.46949134     1.27400
Ni51       Ni  0.32652231  0.18863446  0.49238707     1.26100
H52         H  0.33476587  0.16982020  0.52885043     0.38900
N53         N  0.38972835  0.98903663  0.71166366    -0.36700
N54         N  0.42351421  0.04418596  0.74175598    -0.57300
N55         N  0.41323848  0.00678861  0.78220793    -0.36700
N56         N  0.38305815  0.45301788  0.75272163    -0.57300
C57         C  0.40570042  0.01104634  0.69517657     0.26800
C58         C  0.38477250  0.46317554  0.70112587     0.26800
C59         C  0.43556149  0.03406202  0.78954830     0.26800
C60         C  0.41579590  0.48635859  0.79546229     0.26800
C61         C  0.41388310  0.05240510  0.72203958     0.35500
C62         C  0.42358027  0.06137549  0.76039272     0.35500
C63         C  0.36359893  0.43163859  0.73744569     0.35500
C64         C  0.37568395  0.44127471  0.77534561     0.35500
C65         C  0.40986367  0.99874762  0.67388581    -0.22000
C66         C  0.39742763  0.46879541  0.67776424    -0.22000
C67         C  0.45359842  0.03029771  0.80667273    -0.22000
C68         C  0.44060479  0.50053064  0.81093512    -0.22000
C69         C  0.40752121  0.07492391  0.72817301    -0.23100
C70         C  0.41186215  0.07927824  0.75283473    -0.23100
C71         C  0.34334694  0.40623894  0.75047820    -0.23100
C72         C  0.35129705  0.41218269  0.77445063    -0.23100
C73         C  0.41446670  0.04145874  0.69862871    -0.18400
C74         C  0.36644754  0.43452870  0.71183685    -0.18400
C75         C  0.39313134  0.45577913  0.79606860    -0.18400
C76         C  0.43591057  0.06100297  0.78326209    -0.18400
H77         H  0.42055287  0.00997084  0.65690865     0.14500
H78         H  0.39666517  0.45277348  0.66471089     0.14500
H79         H  0.47261230  0.04666643  0.81700083     0.14500
H80         H  0.44820684  0.49107854  0.82482016     0.14500
H81         H  0.39998485  0.08677840  0.71662794     0.12800
H82         H  0.40742190  0.09429740  0.76367244     0.12800
H83         H  0.32523791  0.38536364  0.74348756     0.12800
H84         H  0.34080838  0.39644683  0.78930468     0.12800
H85         H  0.38070831  0.99145748  0.72827298     0.26000
H86         H  0.39422342  0.00247237  0.77159367     0.26000
N87         N  0.10794890  0.10772914  0.71924566    -0.36700
N88         N  0.12315596  0.07958309  0.75656713    -0.57300
N89         N  0.08282529  0.09077553  0.79035077    -0.36700
N90         N  0.07130802  0.12309330  0.75239259    -0.57300
C91         C  0.13304698  0.10696917  0.70989745     0.26800
C92         C  0.10585281  0.12967129  0.70777372     0.26800
C93         C  0.09828097  0.08271308  0.80569074     0.26800
C94         C  0.07086294  0.10506012  0.80342907     0.26800
C95         C  0.12831415  0.06744339  0.73638936     0.35500
C96         C  0.11566242  0.05950044  0.77462084     0.35500
C97         C  0.05978933  0.12260534  0.73023662     0.35500
C98         C  0.04745923  0.11489850  0.76855137     0.35500
C99         C  0.14817177  0.12979626  0.69298283    -0.22000
C100        C  0.13098810  0.14425996  0.69169741    -0.22000
C101        C  0.09619179  0.09188988  0.82900817    -0.22000
C102        C  0.07865783  0.10594761  0.82760306    -0.22000
C103        C  0.12320318  0.03913230  0.74162420    -0.23100
C104        C  0.11579844  0.03451478  0.76608305    -0.23100
C105        C  0.02822003  0.11300716  0.73225024    -0.23100
C106        C  0.02061292  0.10848539  0.75665096    -0.23100
C107        C  0.13859455  0.08293205  0.71392071    -0.18400
C108        C  0.07854440  0.13213032  0.70878505    -0.18400
C109        C  0.05073318  0.11437815  0.79389657    -0.18400
C110        C  0.11111298  0.06463331  0.79908106    -0.18400
H111        H  0.16839889  0.13444547  0.68182518     0.14500
H112        H  0.13534009  0.16216175  0.67928458     0.14500
H113        H  0.10532415  0.08790615  0.84540087     0.14500
H114        H  0.07164418  0.11485610  0.84274984     0.14500
H115        H  0.12454677  0.02347873  0.72925347     0.12800
H116        H  0.10984733  0.01483255  0.77657084     0.12800
H117        H  0.01229524  0.10928668  0.71773270     0.12800
H118        H  0.99765866  0.09942729  0.76452361     0.12800
H119        H  0.09012256  0.09088934  0.72971509     0.26000
H120        H  0.07787456  0.08398705  0.77238305     0.26000
N121        N  0.00869667  0.38852001  0.78431861    -0.36700
N122        N  0.05602754  0.40352870  0.74741353    -0.57300
N123        N  0.00921229  0.37849362  0.71040722    -0.36700
N124        N  0.46113045  0.36408942  0.74809612    -0.57300
C125        C  0.03475236  0.40929873  0.79531621     0.26800
C126        C  0.48400770  0.38857859  0.79561962     0.26800
C127        C  0.03498449  0.39532470  0.69639958     0.26800
C128        C  0.48407424  0.37125054  0.69665107     0.26800
C129        C  0.07296241  0.40711906  0.76730789     0.35500
C130        C  0.07435438  0.40658223  0.72794015     0.35500
C131        C  0.44298140  0.35417352  0.76845764     0.35500
C132        C  0.44301074  0.34900101  0.72932523     0.35500
C133        C  0.02649468  0.42285399  0.81353190    -0.22000
C134        C  0.49448171  0.40991154  0.81365876    -0.22000
C135        C  0.02605967  0.39713130  0.67302287    -0.22000
C136        C  0.49405986  0.38171044  0.67313268    -0.22000
C137        C  0.10153193  0.41014382  0.76053711    -0.23100
C138        C  0.10307674  0.41151319  0.73555272    -0.23100
C139        C  0.41334002  0.33198447  0.76270230    -0.23100
C140        C  0.41308512  0.32933940  0.73782915    -0.23100
C141        C  0.06551698  0.41495820  0.79006956    -0.18400
C142        C  0.45230756  0.36784847  0.79138326    -0.18400
C143        C  0.45243220  0.35542302  0.70461167    -0.18400
C144        C  0.06641405  0.40924839  0.70397921    -0.18400
H145        H  0.04186432  0.44029592  0.82556665     0.14500
H146        H  0.48048333  0.41516101  0.82589301     0.14500
H147        H  0.04098892  0.40817140  0.65738313     0.14500
H148        H  0.47993774  0.37912449  0.65758657     0.14500
H149        H  0.12061095  0.41450320  0.77226310     0.12800
H150        H  0.12357899  0.41683786  0.72465525     0.12800
H151        H  0.39353690  0.32003528  0.77494894     0.12800
H152        H  0.39295198  0.31492803  0.72731563     0.12800
H153        H  0.00752634  0.37281927  0.77182168     0.26000
H154        H  0.00854090  0.37117629  0.72806462     0.26000
C155        C  0.48699517  0.15201785  0.58426388     0.02100
C156        C  0.02000223  0.17171996  0.58622695     0.02100
C157        C  0.03569176  0.16685436  0.60513295    -0.18400
C158        C  0.01980742  0.14488088  0.62292616     0.02100
C159        C  0.48670217  0.12566793  0.62145390     0.02100
C160        C  0.47137339  0.12916948  0.60156578    -0.18400
H161        H  0.44650310  0.11447034  0.59994949     0.04200
H162        H  0.06068867  0.18098499  0.60647709     0.04200
C163        C  0.17806710  0.49817079  0.59395803     0.02100
C164        C  0.19658383  0.02904464  0.59576057     0.02100
C165        C  0.19163190  0.04322950  0.61587085    -0.18400
C166        C  0.16954576  0.02709161  0.63438760     0.02100
C167        C  0.15190405  0.49604181  0.63297051     0.02100
C168        C  0.15570142  0.48226468  0.61220237    -0.18400
H169        H  0.14187884  0.45824261  0.61069998     0.04200
H170        H  0.20508433  0.06728444  0.61708003     0.04200
C171        C  0.33590018  0.35358318  0.91677019     0.02100
C172        C  0.34788203  0.33370288  0.91575386     0.02100
C173        C  0.36516717  0.33386422  0.89502649    -0.18400
C174        C  0.37410285  0.35541259  0.87648000     0.02100
C175        C  0.36548405  0.37789009  0.87918295     0.02100
C176        C  0.34568489  0.37586574  0.89883135    -0.18400
H177        H  0.33769188  0.39192956  0.90029606     0.04200
H178        H  0.37154891  0.31667525  0.89335738     0.04200
C179        C  0.30499787  0.31363872  0.60414174     0.02100
C180        C  0.32821694  0.30555061  0.59985654     0.02100
C181        C  0.35191819  0.31380547  0.61664681    -0.18400
C182        C  0.35422144  0.33060215  0.63725859     0.02100
C183        C  0.33100427  0.33876558  0.64213845     0.02100
C184        C  0.30669651  0.32989691  0.62533524    -0.18400
H185        H  0.28922035  0.33646390  0.62838067     0.04200
H186        H  0.36957481  0.30746768  0.61329677     0.04200
C187        C  0.19121209  0.01977004  0.90290853     0.02100
C188        C  0.18377845  0.48963803  0.90122169     0.02100
C189        C  0.16451291  0.47209537  0.88245939    -0.18400
C190        C  0.15208350  0.48364182  0.86569308     0.02100
C191        C  0.15932235  0.01376972  0.86766580     0.02100
C192        C  0.17883251  0.03133622  0.88621967    -0.18400
H193        H  0.18459135  0.05442337  0.88766599     0.04200
H194        H  0.15844780  0.44891336  0.88128868     0.04200
C195        C  0.46941087  0.17368185  0.90651737     0.02100
C196        C  0.00174671  0.18336659  0.90488676     0.02100
C197        C  0.01403451  0.17486900  0.88489287    -0.18400
C198        C  0.99496576  0.15807277  0.86550288     0.02100
C199        C  0.46441524  0.15100219  0.86703598     0.02100
C200        C  0.45092163  0.15735395  0.88701888    -0.18400
H201        H  0.42597415  0.14875295  0.88773991     0.04200
H202        H  0.03843735  0.18130362  0.88502434     0.04200
O203        O  0.23178140  0.34523236  0.53177366    -0.81000
O204        O  0.12487505  0.36047350  0.48414064    -0.65700
O205        O  0.17358565  0.34214639  0.52738284    -1.12300
C206        C  0.15339507  0.26766133  0.46740588     1.05900
O207        O  0.09150912  0.31266806  0.48604259    -0.78900
O208        O  0.09579360  0.26504031  0.49787529    -0.66500
Ni209      Ni  0.21481182  0.37154958  0.53526377     1.34900
C210        C  0.10496612  0.26377552  0.51885730     0.84600
O211        O  0.15415920  0.38507300  0.52686248    -0.79500
O212        O  0.20244570  0.40099758  0.54021544    -0.89700
C213        C  0.09857273  0.33840750  0.47866994     0.84200
O214        O  0.22864079  0.38512710  0.50306492    -0.67900
O215        O  0.13334818  0.27375122  0.45885366    -0.87200
C216        C  0.21605412  0.39216985  0.48646646     0.85000
C217        C  0.17811346  0.40342202  0.53870905     1.06600
H218        H  0.16517006  0.33173717  0.47260343     0.38400
O219        O  0.15076670  0.32259483  0.48614658    -1.09900
O220        O  0.13231546  0.28210127  0.52592917    -0.66500
Ni221      Ni  0.17039335  0.30958379  0.50838606     1.26300
O222        O  0.18689218  0.38318603  0.48679869    -0.66800
O223        O  0.16760592  0.27811777  0.48738041    -0.79100
C224        C  0.21955551  0.31797826  0.53773550     0.84400
O225        O  0.19190134  0.29933973  0.53186211    -0.66200
Ni226      Ni  0.11294608  0.29377827  0.47244169     1.27400
Ni227      Ni  0.15120669  0.35366396  0.50588663     1.26100
H228        H  0.16161394  0.33468687  0.54237028     0.38900
O229        O  0.19153384  0.28622489  0.01821490    -0.81000
O230        O  0.20002225  0.39458341  0.97056541    -0.65700
O231        O  0.17754177  0.33160838  0.01640848    -1.12300
C232        C  0.09569741  0.27626358  0.96389464     1.05900
O233        O  0.15089923  0.38445608  0.96834308    -0.78900
O234        O  0.11341460  0.34307245  0.00043331    -0.66500
Ni235      Ni  0.20855099  0.32577599  0.03087736     1.34900
C236        C  0.10504726  0.32300391  0.01652022     0.84600
O237        O  0.22233197  0.39235086  0.01435822    -0.79500
O238        O  0.22632978  0.36491368  0.04439127    -0.89700
C239        C  0.17987302  0.40181493  0.96470740     0.84200
O240        O  0.23969967  0.33981106  0.00530218    -0.67900
O241        O  0.09462065  0.30036691  0.96467035    -0.87200
C242        C  0.23982289  0.34820451  0.98364238     0.85000
C243        C  0.23183444  0.38972527  0.03515470     1.06600
H244        H  0.16551747  0.33073492  0.96000035     0.38400
O245        O  0.15729043  0.33392551  0.97495935    -1.09900
O246        O  0.11392706  0.30356073  0.01567693    -0.66500
Ni247      Ni  0.14674412  0.30117816  0.99661448     1.26300
O248        O  0.22003819  0.35541500  0.97639118    -0.66800
O249        O  0.11612092  0.27278991  0.97507494    -0.79100
C250        C  0.16394421  0.26572948  0.02327648     0.84400
O251        O  0.14090083  0.26929273  0.01817498    -0.66200
Ni252      Ni  0.12477171  0.34196476  0.96754642     1.27400
Ni253      Ni  0.19031118  0.36344571  0.99384402     1.26100
H254        H  0.16701151  0.33546331  0.02969960     0.38900
N255        N  0.48893138  0.11725819  0.21527326    -0.36700
N256        N  0.03921944  0.13438096  0.24774125    -0.57300
N257        N  0.49314059  0.10413381  0.28667467    -0.36700
N258        N  0.44244900  0.08893450  0.25362619    -0.57300
C259        C  0.01374214  0.13673935  0.20168299     0.26800
C260        C  0.46317300  0.11424858  0.20470083     0.26800
C261        C  0.01937613  0.11829457  0.29970366     0.26800
C262        C  0.46868189  0.09267203  0.30266879     0.26800
C263        C  0.05539165  0.13897946  0.22655007     0.35500
C264        C  0.05848574  0.13646296  0.26552500     0.35500
C265        C  0.42434693  0.07817618  0.23387279     0.35500
C266        C  0.42590628  0.07112933  0.27258543     0.35500
C267        C  0.00383028  0.14713667  0.18261435    -0.22000
C268        C  0.47167802  0.13257524  0.18431790    -0.22000
C269        C  0.01157871  0.11607137  0.32418207    -0.22000
C270        C  0.47993232  0.10003270  0.32609662    -0.22000
C271        C  0.08517713  0.14417714  0.23104839    -0.23100
C272        C  0.08743427  0.14396691  0.25576032    -0.23100
C273        C  0.39613707  0.05362937  0.24037470    -0.23100
C274        C  0.39651828  0.05008700  0.26492989    -0.23100
C275        C  0.04375043  0.14028639  0.20360798    -0.18400
C276        C  0.43270862  0.09112393  0.21032495    -0.18400
C277        C  0.43699213  0.07361041  0.29662819    -0.18400
C278        C  0.05035389  0.13140739  0.29045189    -0.18400
H279        H  0.01801255  0.16163812  0.16787938     0.14500
H280        H  0.45627475  0.13409344  0.17143080     0.14500
H281        H  0.02724063  0.12500228  0.33924754     0.14500
H282        H  0.46731815  0.09335346  0.34323161     0.14500
H283        H  0.10385472  0.14844794  0.21829867     0.12800
H284        H  0.10813421  0.14911375  0.26547700     0.12800
H285        H  0.37692486  0.03967725  0.22887680     0.12800
H286        H  0.37720862  0.03328666  0.27553036     0.12800
H287        H  0.48922073  0.10262550  0.22805261     0.26000
H288        H  0.49216478  0.09875247  0.26843638     0.26000
N289        N  0.39152930  0.38998168  0.28332952    -0.36700
N290        N  0.42647730  0.38024808  0.24580870    -0.57300
N291        N  0.40364060  0.40794206  0.21236531    -0.36700
N292        N  0.36744697  0.41623047  0.25062542    -0.57300
C293        C  0.39905935  0.37088475  0.29381491     0.26800
C294        C  0.36792603  0.38922586  0.29672732     0.26800
C295        C  0.41421688  0.39430283  0.19695490     0.26800
C296        C  0.38468788  0.41455241  0.19969041     0.26800
C297        C  0.44075874  0.37709723  0.26530381     0.35500
C298        C  0.44530856  0.38458864  0.22637060     0.35500
C299        C  0.35914456  0.42376470  0.27188912     0.35500
C300        C  0.36649591  0.43426656  0.23341372     0.35500
C301        C  0.37914103  0.35690731  0.31353563    -0.22000
C302        C  0.35962317  0.36875610  0.31550428    -0.22000
C303        C  0.40155765  0.39188915  0.17427343    -0.22000
C304        C  0.38285662  0.40466198  0.17601070    -0.22000
C305        C  0.46897851  0.37940192  0.25820649    -0.23100
C306        C  0.47153841  0.38362145  0.23335749    -0.23100
C307        C  0.35205545  0.44620285  0.26807021    -0.23100
C308        C  0.35706012  0.45312041  0.24370463    -0.23100
C309        C  0.42721515  0.37080265  0.28893730    -0.18400
C310        C  0.35727618  0.40981578  0.29439313    -0.18400
C311        C  0.37206335  0.43225135  0.20838141    -0.18400
C312        C  0.43759262  0.38714215  0.20233341    -0.18400
H313        H  0.38009774  0.34139832  0.32616496     0.14500
H314        H  0.34233187  0.36397320  0.32976516     0.14500
H315        H  0.40613637  0.38279646  0.15797157     0.14500
H316        H  0.37016022  0.40725817  0.16132437     0.14500
H317        H  0.48579959  0.37795376  0.26954160     0.12800
H318        H  0.49050961  0.38598299  0.22174281     0.12800
H319        H  0.34432786  0.45671146  0.28139619     0.12800
H320        H  0.35396179  0.46999698  0.23466312     0.12800
H321        H  0.40549946  0.40658212  0.27082601     0.26000
H322        H  0.41228086  0.41607281  0.22947415     0.26000
C323        C  0.31308159  0.99869627  0.40647968     0.02100
C324        C  0.30223762  0.46813968  0.41037822     0.02100
C325        C  0.30965189  0.45248523  0.39308989    -0.18400
C326        C  0.33014852  0.46699900  0.37335344     0.02100
C327        C  0.34263092  0.99862372  0.36997902     0.02100
C328        C  0.33022932  0.01232321  0.38516496    -0.18400
H329        H  0.33518899  0.03472622  0.38112276     0.04200
H330        H  0.29997581  0.42866878  0.39540140     0.04200
N331        N  0.11990702  0.50791208  0.28786773    -0.36700
N332        N  0.13931149  0.04882427  0.24621601    -0.57300
N333        N  0.11421007  0.49867409  0.21376470    -0.36700
N334        N  0.09349708  0.45769457  0.25503072    -0.57300
C335        C  0.12701266  0.03471001  0.29841537     0.26800
C336        C  0.10070811  0.48581946  0.30352385     0.26800
C337        C  0.11573550  0.02075046  0.19874992     0.26800
C338        C  0.09541324  0.47219763  0.20324401     0.26800
C339        C  0.15653191  0.06789543  0.26373623     0.35500
C340        C  0.14912786  0.06369402  0.22480515     0.35500
C341        C  0.08795547  0.44266885  0.27633154     0.35500
C342        C  0.09026047  0.43844166  0.23705474     0.35500
C343        C  0.11236969  0.02936963  0.32104349    -0.22000
C344        C  0.09692555  0.49862218  0.32465276    -0.22000
C345        C  0.09853901  0.00763106  0.17814287    -0.22000
C346        C  0.08543787  0.47695298  0.18125236    -0.22000
C347        C  0.17857346  0.09464646  0.25328153    -0.23100
C348        C  0.17283357  0.09249564  0.22883032    -0.23100
C349        C  0.08044223  0.41350795  0.27168409    -0.23100
C350        C  0.08347286  0.41130589  0.24706505    -0.23100
C351        C  0.14794904  0.06348618  0.28873510    -0.18400
C352        C  0.08762274  0.45457809  0.29960927    -0.18400
C353        C  0.08929764  0.44399251  0.21191428    -0.18400
C354        C  0.13454963  0.05199291  0.20238071    -0.18400
H355        H  0.11305634  0.04544425  0.33399870     0.14500
H356        H  0.08454208  0.48787697  0.34128290     0.14500
H357        H  0.09662486  0.01828948  0.16194494     0.14500
H358        H  0.07059170  0.46040797  0.16836125     0.14500
H359        H  0.19496923  0.11463302  0.26256479     0.12800
H360        H  0.18424115  0.11061094  0.21594679     0.12800
H361        H  0.07315905  0.39530515  0.28439890     0.12800
H362        H  0.07963620  0.39139657  0.23769612     0.12800
H363        H  0.12982198  0.50536826  0.27183066     0.26000
H364        H  0.12754721  0.50157055  0.22895448     0.26000
C365        C  0.31593950  0.01546962  0.10011351     0.02100
C366        C  0.30585999  0.48454493  0.09998883     0.02100
C367        C  0.31568724  0.47241911  0.11832355    -0.18400
C368        C  0.33649398  0.49050250  0.13602818     0.02100
C369        C  0.34697980  0.02171875  0.13577597     0.02100
C370        C  0.33620097  0.03352368  0.11808073    -0.18400
H371        H  0.34454461  0.05727428  0.11780179     0.04200
H372        H  0.30719752  0.44865009  0.11872783     0.04200
C373        C  0.19107646  0.18169492  0.39794597     0.02100
C374        C  0.16799417  0.19027942  0.39928310     0.02100
C375        C  0.14770516  0.18324544  0.37985486    -0.18400
C376        C  0.14786502  0.16574336  0.36037801     0.02100
C377        C  0.17044482  0.15624710  0.35925419     0.02100
C378        C  0.19299646  0.16633611  0.37740111    -0.18400
H379        H  0.21137935  0.16069854  0.37630900     0.04200
H380        H  0.13063421  0.19063215  0.38028487     0.04200
C381        C  0.14696560  0.16668616  0.08317492     0.02100
C382        C  0.16263298  0.14997998  0.08357146     0.02100
C383        C  0.15461819  0.12827784  0.10182322    -0.18400
C384        C  0.13467076  0.12529301  0.12153321     0.02100
C385        C  0.11986271  0.14292046  0.12137529     0.02100
C386        C  0.12528832  0.16230702  0.10181451    -0.18400
H387        H  0.11396422  0.17572143  0.10195662     0.04200
H388        H  0.16587106  0.11481523  0.10151216     0.04200
C389        C  0.01062878  0.34485554  0.41544660     0.02100
C390        C  0.47841249  0.32515986  0.41155898     0.02100
C391        C  0.46556816  0.32792939  0.38980057    -0.18400
C392        C  0.48329500  0.35024407  0.37265518     0.02100
C393        C  0.01496280  0.37040453  0.37694994     0.02100
C394        C  0.02814606  0.36736066  0.39823969    -0.18400
H395        H  0.05272394  0.38229263  0.40116954     0.04200
H396        H  0.44122610  0.31271178  0.38627822     0.04200
C397        C  0.03180855  0.33324736  0.09665303     0.02100
C398        C  0.49941467  0.32432233  0.09445350     0.02100
C399        C  0.48516241  0.33482652  0.11083380    -0.18400
C400        C  0.50062505  0.35157637  0.13114483     0.02100
C401        C  0.03266003  0.35912723  0.13465443     0.02100
C402        C  0.04778416  0.35061047  0.11686445    -0.18400
H403        H  0.07225884  0.35774936  0.11867984     0.04200
H404        H  0.46104088  0.32873950  0.10825570     0.04200
C405        C  0.07061723  0.43343339  0.32041767    -0.06300
C406        C  0.04508347  0.43419270  0.33148714    -0.17400
C407        C  0.03056808  0.41759658  0.35249494     0.10900
C408        C  0.03534040  0.39379809  0.35887682    -0.06200
C409        C  0.06056174  0.39250068  0.34787720    -0.17400
C410        C  0.07969048  0.41354200  0.33018811     0.11000
S411        S  0.01203458  0.43203047  0.37267540    -0.32400
S412        S  0.11567856  0.41443229  0.32183234    -0.32400
H413        H  0.13141850  0.44399322  0.31332104     0.29000
H414        H  0.01051228  0.41543879  0.39333695     0.29000
H415        H  0.03837807  0.44999813  0.32515540     0.19600
H416        H  0.06613595  0.37575532  0.35382508     0.19600
C417        C  0.07862664  0.41910669  0.19378508    -0.06300
C418        C  0.05052348  0.39250325  0.19791051    -0.17400
C419        C  0.03805515  0.37050641  0.18014872     0.10900
C420        C  0.05046137  0.37704619  0.15610888    -0.06200
C421        C  0.07961464  0.40270505  0.15230592    -0.17400
C422        C  0.09464734  0.42260486  0.17127308     0.11000
S423        S  0.50715555  0.33447655  0.18997745    -0.32400
S424        S  0.13397826  0.45227032  0.16555294    -0.32400
H425        H  0.14273785  0.45603157  0.19002105     0.29000
H426        H  0.51267258  0.31895191  0.17127211     0.29000
H427        H  0.03829754  0.38847987  0.21519524     0.19600
H428        H  0.09067442  0.40752936  0.13443362     0.19600
C429        C  0.15859851  0.09005729  0.30518248    -0.06300
C430        C  0.17031840  0.08945780  0.32807789    -0.17400
C431        C  0.17317644  0.10975103  0.34618726     0.10900
C432        C  0.17003393  0.13489235  0.34027529    -0.06200
C433        C  0.16375186  0.13808640  0.31599131    -0.17400
C434        C  0.15457051  0.11462257  0.29955416     0.11000
S435        S  0.17634542  0.09948199  0.37681623    -0.32400
S436        S  0.13385170  0.11555123  0.27343250    -0.32400
H437        H  0.11117190  0.08522234  0.27478049     0.29000
H438        H  0.15381953  0.10600124  0.38645713     0.29000
H439        H  0.17357417  0.07087387  0.33284721     0.19600
H440        H  0.16248437  0.15750722  0.31046041     0.19600
C441        C  0.13392162  0.10691553  0.14294721    -0.06300
C442        C  0.16249288  0.11107008  0.15158282    -0.17400
C443        C  0.16367272  0.09256628  0.16963663     0.10900
C444        C  0.13606123  0.07277181  0.18267584    -0.06200
C445        C  0.10782689  0.07029489  0.17519407    -0.17400
C446        C  0.10626899  0.08389799  0.15375453     0.11000
S447        S  0.20054649  0.09379452  0.17326838    -0.32400
S448        S  0.06976656  0.06507394  0.13840267    -0.32400
H449        H  0.08244922  0.07457480  0.11488323     0.29000
H450        H  0.18847199  0.06522050  0.18345646     0.29000
H451        H  0.18412260  0.12747451  0.14296242     0.19600
H452        H  0.08624899  0.05425327  0.18418682     0.19600
C453        C  0.46757950  0.35322475  0.35109571    -0.06300
C454        C  0.45621744  0.37306993  0.35249342    -0.17400
C455        C  0.44716235  0.38181148  0.33175990     0.10900
C456        C  0.44309399  0.36597206  0.30984753    -0.06200
C457        C  0.45159843  0.34367682  0.30900746    -0.17400
C458        C  0.46487222  0.33791842  0.32925268     0.11000
S459        S  0.94355381  0.41470385  0.33438255    -0.32400
S460        S  0.47714778  0.31039728  0.32756005    -0.32400
H461        H  0.47236370  0.30492565  0.30253469     0.29000
H462        H  0.45234382  0.42408283  0.31009357     0.29000
H463        H  0.95623654  0.38293865  0.36981259     0.19600
H464        H  0.44783137  0.33086991  0.29258783     0.19600
C465        C  0.48295389  0.36078092  0.14806470    -0.06300
C466        C  0.49530088  0.39113760  0.15343785    -0.17400
C467        C  0.48063089  0.40069970  0.17040954     0.10900
C468        C  0.45274851  0.37947783  0.18219695    -0.06200
C469        C  0.43942716  0.34948743  0.17584313    -0.17400
C470        C  0.45404332  0.33981671  0.15906850     0.11000
S471        S  0.49936461  0.43999624  0.17679366    -0.32400
S472        S  0.43524617  0.30013923  0.15410860    -0.32400
H473        H  0.46254512  0.29853230  0.15031458     0.29000
H474        H  0.47306839  0.44071480  0.18603557     0.29000
H475        H  0.01704105  0.40769381  0.14422725     0.19600
H476        H  0.41789860  0.33325446  0.18477837     0.19600
C477        C  0.33555891  0.44773464  0.35628695    -0.06300
C478        C  0.31208554  0.43080739  0.33972213    -0.17400
C479        C  0.31764235  0.41650019  0.32017732     0.10900
C480        C  0.34748712  0.41946387  0.31689072    -0.06200
C481        C  0.36997854  0.43421929  0.33469839    -0.17400
C482        C  0.36422967  0.44804763  0.35448434     0.11000
S483        S  0.28619396  0.39595173  0.29963199    -0.32400
S484        S  0.39597197  0.96892714  0.37576371    -0.32400
H485        H  0.37674437  0.96744220  0.39549908     0.29000
H486        H  0.29736034  0.37759510  0.29024231     0.29000
H487        H  0.28978453  0.43000685  0.34134806     0.19600
H488        H  0.39276269  0.43616965  0.33254664     0.19600
C489        C  0.36371846  0.44859457  0.19046011    -0.06300
C490        C  0.33282816  0.44292553  0.18993740    -0.17400
C491        C  0.32370483  0.45726041  0.17314266     0.10900
C492        C  0.34536591  0.47632474  0.15534718    -0.06200
C493        C  0.37582578  0.48103971  0.15534084    -0.17400
C494        C  0.38569193  0.46881792  0.17333440     0.11000
S495        S  0.28407967  0.45003925  0.17529870    -0.32400
S496        S  0.42670327  0.48046089  0.17351181    -0.32400
H497        H  0.42818580  0.47634556  0.19857106     0.29000
H498        H  0.28980649  0.47736865  0.16541816     0.29000
H499        H  0.31575675  0.42745054  0.20293374     0.19600
H500        H  0.39197861  0.99462815  0.14106639     0.19600
C501        C  0.41450039  0.05425502  0.31612301    -0.06300
C502        C  0.40853789  0.06696128  0.33658827    -0.17400
C503        C  0.38921991  0.04899314  0.35573059     0.10900
C504        C  0.36803941  0.01811529  0.35154690    -0.06200
C505        C  0.37212923  0.50587919  0.32922021    -0.17400
C506        C  0.39830739  0.02304659  0.31433999     0.11000
S507        S  0.39558699  0.06575410  0.38555783    -0.32400
S508        S  0.40963007  0.50225249  0.29324181    -0.32400
H509        H  0.44098817  0.52455942  0.29067612     0.29000
H510        H  0.42283110  0.09253834  0.37950650     0.29000
H511        H  0.42078292  0.09092576  0.33841712     0.19600
H512        H  0.35618512  0.48376024  0.32352633     0.19600
C513        C  0.36963303  0.04235426  0.15329225    -0.06300
C514        C  0.35883228  0.05215925  0.17307145    -0.17400
C515        C  0.37942649  0.07103545  0.19052547     0.10900
C516        C  0.41074529  0.07721398  0.18981753    -0.06200
C517        C  0.42153079  0.06850191  0.16923081    -0.17400
C518        C  0.40188644  0.05324480  0.15021392     0.11000
S519        S  0.36448658  0.08689397  0.21266849    -0.32400
S520        S  0.41987135  0.04981097  0.12235919    -0.32400
H521        H  0.39530360  0.04376828  0.10684795     0.29000
H522        H  0.39354592  0.11091986  0.21889186     0.29000
H523        H  0.33436949  0.04564196  0.17456897     0.19600
H524        H  0.44567205  0.07404270  0.16772330     0.19600
C525        C  0.12312302  0.15711395  0.34223883    -0.06300
C526        C  0.10150561  0.12689452  0.33905243    -0.17400
C527        C  0.07876088  0.11785811  0.32138167     0.10900
C528        C  0.07579371  0.13955389  0.30796691    -0.06200
C529        C  0.09712413  0.16977848  0.31136529    -0.17400
C530        C  0.12125028  0.17875670  0.32789416     0.11000
S531        S  0.05490358  0.07843654  0.31635181    -0.32400
S532        S  0.15047127  0.21763719  0.32966006    -0.32400
H533        H  0.13797769  0.22815351  0.31204909     0.29000
H534        H  0.04979382  0.08071079  0.29162374     0.29000
H535        H  0.10319547  0.11021600  0.34975429     0.19600
H536        H  0.09502199  0.18624208  0.30072054     0.19600
C537        C  0.06215655  0.14304881  0.18089097    -0.06300
C538        C  0.09307039  0.16636600  0.17832908    -0.17400
C539        C  0.11280487  0.16600782  0.15984543     0.10900
C540        C  0.10053690  0.14382761  0.14188159    -0.06200
C541        C  0.06844435  0.12425248  0.14187659    -0.17400
C542        C  0.04973522  0.12177259  0.16205804     0.11000
S543        S  0.15311784  0.19474106  0.15986723    -0.32400
S544        S  0.01127398  0.08955704  0.16323114    -0.32400
H545        H  0.01191769  0.08368584  0.18807200     0.29000
H546        H  0.16518083  0.17737668  0.14991450     0.29000
H547        H  0.10246908  0.18388396  0.19172532     0.19600
H548        H  0.05823104  0.10943812  0.12668950     0.19600
C549        C  0.15991129  0.23862624  0.03610134    -0.06300
C550        C  0.18370213  0.24216942  0.05171782    -0.17400
C551        C  0.18068492  0.21892283  0.06652730     0.10900
C552        C  0.15380261  0.19064669  0.06518555    -0.06200
C553        C  0.13048567  0.18659410  0.04890955    -0.17400
C554        C  0.13327361  0.21009082  0.03431902     0.11000
S555        S  0.21100759  0.22764632  0.08797029    -0.32400
S556        S  0.10227549  0.20205926  0.01375041    -0.32400
H557        H  0.12211986  0.22005197  0.99476938     0.29000
H558        H  0.19112826  0.21027768  0.10713692     0.29000
H559        H  0.20426532  0.26383658  0.05350952     0.19600
H560        H  0.10958740  0.16503745  0.04796399     0.19600
C561        C  0.08424765  0.32287048  0.03672208    -0.06300
C562        C  0.08633764  0.31337471  0.06017461    -0.17400
C563        C  0.06916809  0.31575006  0.08007215     0.10900
C564        C  0.04932954  0.32786478  0.07650506    -0.06200
C565        C  0.04658977  0.33637445  0.05294538    -0.17400
C566        C  0.06310701  0.33355600  0.03309506     0.11000
S567        S  0.07236116  0.30272404  0.10969516    -0.32400
S568        S  0.05596553  0.34314827  0.00320759    -0.32400
H569        H  0.02951417  0.34543911  0.00960678     0.29000
H570        H  0.09502166  0.29488020  0.10316714     0.29000
H571        H  0.10201229  0.30473518  0.06298967     0.19600
H572        H  0.03170095  0.34589846  0.05013930     0.19600
C573        C  0.24977353  0.41660491  0.04976394    -0.06300
C574        C  0.23696797  0.41852844  0.07223829    -0.17400
C575        C  0.25393599  0.44217058  0.08806461     0.10900
C576        C  0.28462995  0.46396634  0.08155219    -0.06200
C577        C  0.29691381  0.46268111  0.05864005    -0.17400
C578        C  0.27972688  0.43944037  0.04258707     0.11000
S579        S  0.23671909  0.44399730  0.11684613    -0.32400
S580        S  0.29812033  0.43923106  0.01399077    -0.32400
H581        H  0.28468868  0.40817880  0.01240405     0.29000
H582        H  0.20710565  0.91906924  0.11280073     0.29000
H583        H  0.21378783  0.40114750  0.07750356     0.19600
H584        H  0.32078414  0.47867145  0.05382528     0.19600
C585        C  0.16508874  0.20764754  0.41992190    -0.06300
C586        C  0.19124218  0.23483531  0.42618897    -0.17400
C587        C  0.18866787  0.25443922  0.44256248     0.10900
C588        C  0.15933063  0.24671521  0.45313355    -0.06200
C589        C  0.13356025  0.21918700  0.44766697    -0.17400
C590        C  0.13598037  0.19951598  0.43151386     0.11000
S591        S  0.22308683  0.28970796  0.44782865    -0.32400
S592        S  0.10044604  0.16494247  0.42639470    -0.32400
H593        H  0.11409097  0.14854476  0.41749188     0.29000
H594        H  0.20782078  0.30653591  0.44897835     0.29000
H595        H  0.21349896  0.24170276  0.41717991     0.19600
H596        H  0.11099321  0.21318779  0.45573907     0.19600
C597        C  0.02874197  0.34080554  0.43473295    -0.06300
C598        C  0.04015651  0.32145940  0.42931859    -0.17400
C599        C  0.06368351  0.32139822  0.44277701     0.10900
C600        C  0.07643991  0.34102089  0.46256336    -0.06200
C601        C  0.06539862  0.36073898  0.46802060    -0.17400
C602        C  0.04182548  0.36094613  0.45423170     0.11000
S603        S  0.07805760  0.29716372  0.43252041    -0.32400
S604        S  0.03030624  0.38810514  0.46177815    -0.32400
H605        H  0.00061107  0.37251275  0.45172937     0.29000
H606        H  0.10949732  0.31789691  0.43665961     0.29000
H607        H  0.03210667  0.30757694  0.41333867     0.19600
H608        H  0.07487193  0.37574677  0.48321769     0.19600
C609        C  0.23719518  0.41205395  0.46652504    -0.06300
C610        C  0.26751974  0.41597899  0.46474734    -0.17400
C611        C  0.28954725  0.43505520  0.44757450     0.10900
C612        C  0.28163472  0.45131550  0.43140026    -0.06200
C613        C  0.25173826  0.44816298  0.43332418    -0.17400
C614        C  0.22942983  0.42860007  0.45037093     0.11000
S615        S  0.32704799  0.43681199  0.44742518    -0.32400
S616        S  0.19176154  0.42603202  0.45043632    -0.32400
H617        H  0.17619521  0.39544357  0.44509457     0.29000
H618        H  0.34388548  0.46246171  0.43314095     0.29000
H619        H  0.27437358  0.40384063  0.47682765     0.19600
H620        H  0.24526515  0.46013518  0.42073050     0.19600
C621        C  0.02429894  0.20602550  0.92158586    -0.06300
C622        C  0.03873894  0.23560945  0.91356700    -0.17400
C623        C  0.06252968  0.25843523  0.92658917     0.10900
C624        C  0.07195120  0.25199755  0.94889796    -0.06200
C625        C  0.05758169  0.22226931  0.95695729    -0.17400
C626        C  0.03422556  0.19920093  0.94336522     0.11000
S627        S  0.08079042  0.29506060  0.91285455    -0.32400
S628        S  0.51807897  0.16156525  0.95495443    -0.32400
H629        H  0.51364096  0.14838419  0.93195764     0.29000
H630        H  0.11119258  0.30271352  0.91946068     0.29000
H631        H  0.03200930  0.24086322  0.89645676     0.19600
H632        H  0.06456296  0.21697762  0.97390407     0.19600
C633        C  0.19136764  0.47431195  0.92049888    -0.06300
C634        C  0.17386022  0.46742085  0.94224999    -0.17400
C635        C  0.17280418  0.44622944  0.95857147     0.10900
C636        C  0.18891850  0.43070012  0.95277618    -0.06200
C637        C  0.20849003  0.43924893  0.93202886    -0.17400
C638        C  0.20981612  0.46079924  0.91582013     0.11000
S639        S  0.14887855  0.43768743  0.98593000    -0.32400
S640        S  0.23136933  0.96661658  0.88805516    -0.32400
H641        H  0.23528985  0.99484451  0.88318718     0.29000
H642        H  0.14346818  0.46191389  0.98441368     0.29000
H643        H  0.15856981  0.47651216  0.94541090     0.19600
H644        H  0.22080432  0.42738282  0.92735409     0.19600
C645        C  0.28090910  0.30846109  0.58579098    -0.06300
C646        C  0.29092758  0.31931294  0.56201031    -0.17400
C647        C  0.27026061  0.31915276  0.54492589     0.10900
C648        C  0.23885692  0.30897078  0.55173943    -0.06200
C649        C  0.22818193  0.29608811  0.57482478    -0.17400
C650        C  0.24867018  0.29544441  0.59182270     0.11000
S651        S  0.28551084  0.33312541  0.51480924    -0.32400
S652        S  0.23196367  0.27837346  0.62095087    -0.32400
H653        H  0.25614704  0.27359746  0.62830434     0.29000
H654        H  0.25692137  0.31693416  0.50306016     0.29000
H655        H  0.31534568  0.32912921  0.55690500     0.19600
H656        H  0.20408786  0.28808354  0.58020023     0.19600
C657        C  0.26407942  0.34917818  0.96635520    -0.06300
C658        C  0.29538307  0.36322588  0.97346484    -0.17400
C659        C  0.31919326  0.36489483  0.95788415     0.10900
C660        C  0.31172486  0.35101882  0.93496032    -0.06200
C661        C  0.28044157  0.33677327  0.92792488    -0.17400
C662        C  0.25670511  0.33558937  0.94327376     0.11000
S663        S  0.35867721  0.38560985  0.96806909    -0.32400
S664        S  0.21734372  0.31561889  0.93261913    -0.32400
H665        H  0.20346248  0.30340266  0.95537658     0.29000
H666        H  0.37223610  0.39728267  0.94514992     0.29000
H667        H  0.30150092  0.37375417  0.99107535     0.19600
H668        H  0.27445111  0.32647087  0.91021610     0.19600
C669        C  0.18334722  0.47972984  0.57584654    -0.06300
C670        C  0.19887833  0.46532129  0.58451314    -0.17400
C671        C  0.19633836  0.44003366  0.57336120     0.10900
C672        C  0.17897706  0.42907673  0.55185114    -0.06200
C673        C  0.16420706  0.44411075  0.54252351    -0.17400
C674        C  0.16589295  0.46906411  0.55442819     0.11000
S675        S  0.21325743  0.42122482  0.58936000    -0.32400
S676        S  0.14414538  0.48523174  0.54187561    -0.32400
H677        H  0.15472664  0.50990683  0.55716421     0.29000
H678        H  0.18783489  0.39254281  0.58578492     0.29000
H679        H  0.21073134  0.47216656  0.60166240     0.19600
H680        H  0.15105560  0.43624517  0.52602704     0.19600
C681        C  0.03902312  0.19662215  0.56885996    -0.06300
C682        C  0.03912944  0.19004369  0.54413673    -0.17400
C683        C  0.06042876  0.21130788  0.52749722     0.10900
C684        C  0.08232998  0.24012098  0.53569179    -0.06200
C685        C  0.08193310  0.24679074  0.56033066    -0.17400
C686        C  0.06052886  0.22571284  0.57687808     0.11000
S687        S  0.06102979  0.20029836  0.49635192    -0.32400
S688        S  0.06243965  0.23780624  0.60795942    -0.32400
H689        H  0.03212966  0.21647499  0.61532482     0.29000
H690        H  0.03385254  0.17230564  0.49794241     0.29000
H691        H  0.02351859  0.16763963  0.53809571     0.19600
H692        H  0.09822711  0.26885326  0.56674165     0.19600
C693        C  0.42912655  0.36068002  0.81201746    -0.06300
C694        C  0.43611339  0.35309054  0.83461064    -0.17400
C695        C  0.41892087  0.35108605  0.85577457     0.10900
C696        C  0.39168424  0.35368117  0.85433543    -0.06200
C697        C  0.38234147  0.35706787  0.83109140    -0.17400
C698        C  0.40180912  0.36298888  0.81047998     0.11000
S699        S  0.43538717  0.34841886  0.88393003    -0.32400
S700        S  0.39196868  0.37651356  0.78383594    -0.32400
H701        H  0.42287272  0.39619383  0.77635769     0.29000
H702        H  0.42899475  0.36855619  0.89646946     0.29000
H703        H  0.45680868  0.35103847  0.83613095     0.19600
H704        H  0.36113270  0.35814529  0.82933542     0.19600
C705        C  0.09035359  0.43139959  0.80847066    -0.06300
C706        C  0.08397021  0.42094916  0.83265927    -0.17400
C707        C  0.10330306  0.43746129  0.85162004     0.10900
C708        C  0.13143780  0.46397518  0.84633546    -0.06200
C709        C  0.13941105  0.47297369  0.82202434    -0.17400
C710        C  0.11886277  0.45803826  0.80326990     0.11000
S711        S  0.08944261  0.42463057  0.88219178    -0.32400
S712        S  0.13045808  0.47590459  0.77383763    -0.32400
H713        H  0.10014245  0.46648361  0.76596845     0.29000
H714        H  0.10026131  0.45315972  0.89198248     0.29000
H715        H  0.06251159  0.40064039  0.83705681     0.19600
H716        H  0.16105900  0.99316636  0.81788981     0.19600
C717        C  0.13124044  0.47594988  0.65301319    -0.06300
C718        C  0.13627555  0.45261825  0.66053328    -0.17400
C719        C  0.11517457  0.42977908  0.67609407     0.10900
C720        C  0.09074841  0.43235975  0.68747838    -0.06200
C721        C  0.08698514  0.45676034  0.68128488    -0.17400
C722        C  0.10484360  0.47661893  0.66268299     0.11000
S723        S  0.11920589  0.39702150  0.67835652    -0.32400
S724        S  0.08856903  0.49745531  0.64937706    -0.32400
H725        H  0.10011149  0.49784540  0.62574442     0.29000
H726        H  0.08841064  0.37718728  0.68590115     0.29000
H727        H  0.15556540  0.45084825  0.65262325     0.19600
H728        H  0.06750424  0.45829940  0.68910672     0.19600
C729        C  0.42808722  0.34852997  0.68635702    -0.06300
C730        C  0.42537080  0.37228585  0.67676186    -0.17400
C731        C  0.40335153  0.36760525  0.65925586     0.10900
C732        C  0.38116615  0.33815184  0.65307411    -0.06200
C733        C  0.38458882  0.31449296  0.66212750    -0.17400
C734        C  0.40822192  0.31941534  0.67811345     0.11000
S735        S  0.40587219  0.40010675  0.64497056    -0.32400
S736        S  0.41125666  0.28755497  0.68755281    -0.32400
H737        H  0.44278201  0.30314687  0.69377530     0.29000
H738        H  0.39057271  0.38591102  0.62362390     0.29000
H739        H  0.44135032  0.39482573  0.68238519     0.19600
H740        H  0.36834542  0.29184568  0.65693256     0.19600
C741        C  0.03508742  0.12638594  0.81040680    -0.06300
C742        C  0.00261965  0.11045949  0.81417623    -0.17400
C743        C  0.98366527  0.12053667  0.82811021     0.10900
C744        C  0.00562742  0.14623775  0.84398517    -0.06200
C745        C  0.03783674  0.16264409  0.83865443    -0.17400
C746        C  0.05237919  0.15371223  0.82170959     0.11000
S747        S  0.40613646  0.09570098  0.82229477    -0.32400
S748        S  0.09377144  0.17770352  0.81654278    -0.32400
H749        H  0.09489065  0.16931252  0.79241026     0.29000
H750        H  0.39773132  0.11585832  0.83303527     0.29000
H751        H  0.99299162  0.09027268  0.80427605     0.19600
H752        H  0.05233676  0.18362450  0.84745994     0.19600
C753        C  0.12236482  0.05211018  0.81798359    -0.06300
C754        C  0.15457939  0.06486816  0.82042970    -0.17400
C755        C  0.16709867  0.05272144  0.83623117     0.10900
C756        C  0.14699718  0.02753820  0.85059602    -0.06200
C757        C  0.11457377  0.01524268  0.84863175    -0.17400
C758        C  0.10206180  0.02709880  0.83223136     0.11000
S759        S  0.20890883  0.06958642  0.83621180    -0.32400
S760        S  0.06043737  0.00986027  0.82895479    -0.32400
H761        H  0.05229457  0.98684022  0.84600638     0.29000
H762        H  0.20896487  0.04252240  0.83829917     0.29000
H763        H  0.17014200  0.08397079  0.80929381     0.19600
H764        H  0.09915400  0.99610978  0.85974230     0.19600
C765        C  0.16470781  0.04402115  0.65422552    -0.06300
C766        C  0.17626605  0.04475947  0.67738264    -0.17400
C767        C  0.17119805  0.06006462  0.69650965     0.10900
C768        C  0.15086361  0.07186151  0.69333068    -0.06200
C769        C  0.14058251  0.07195506  0.66963906    -0.17400
C770        C  0.14923171  0.06021335  0.64992172     0.11000
S771        S  0.19301463  0.06526829  0.72368701    -0.32400
S772        S  0.13877261  0.56453354  0.61957725    -0.32400
H773        H  0.12592747  0.58273833  0.62561018     0.29000
H774        H  0.19398308  0.09200075  0.73032081     0.20600
H775        H  0.19022824  0.03424349  0.68032152     0.19600
H776        H  0.12515752  0.08076274  0.66645808     0.19600
C777        C  0.06728546  0.14000441  0.68621581    -0.06300
C778        C  0.07163322  0.12960927  0.66356797    -0.17400
C779        C  0.05914501  0.13360014  0.64230254     0.10900
C780        C  0.03772683  0.14420831  0.64398474    -0.06200
C781        C  0.03450359  0.15607776  0.66609131    -0.17400
C782        C  0.05065270  0.15590707  0.68667600     0.11000
S783        S  0.07148834  0.12411205  0.61406504    -0.32400
S784        S  0.05037232  0.17780233  0.71220000    -0.32400
H785        H  0.07880669  0.18273933  0.72151678     0.29000
H786        H  0.04796154  0.12212198  0.59910641     0.29000
H787        H  0.08451643  0.11775534  0.66221855     0.19600
H788        H  0.02019380  0.16657239  0.66703558     0.19600
C789        C  0.44443156  0.08534770  0.80223181    -0.06300
C790        C  0.43881596  0.07348642  0.83162724    -0.17400
C791        C  0.44018393  0.09531588  0.85445130     0.10900
C792        C  0.44751452  0.13036373  0.84882120    -0.06200
C793        C  0.45478264  0.14379873  0.81969182    -0.17400
C794        C  0.45380573  0.12170190  0.79643437     0.11000
S795        S  0.43604507  0.08096805  0.88469364    -0.32400
S796        S  0.46795131  0.14092990  0.76770913    -0.32400
H797        H  0.46948614  0.11844784  0.75489226     0.29000
H798        H  0.46348955  0.10564447  0.89265066     0.29000
H799        H  0.43107421  0.05065044  0.83636841     0.19600
H800        H  0.46339445  0.16723874  0.81637964     0.19600
C801        C  0.37470352  0.40236768  0.86087243    -0.06300
C802        C  0.35144738  0.40729203  0.85130579    -0.17400
C803        C  0.35788841  0.42685087  0.83176879     0.10900
C804        C  0.38692091  0.43874749  0.81925357    -0.06200
C805        C  0.41027204  0.43426801  0.82906645    -0.17400
C806        C  0.40536625  0.41903152  0.85106961     0.11000
S807        S  0.32794371  0.43527327  0.82343272    -0.32400
S808        S  0.43918872  0.42255332  0.86588948    -0.32400
H809        H  0.42515931  0.41475549  0.88918288     0.29000
H810        H  0.34843013  0.46399962  0.81432839     0.29000
H811        H  0.32799696  0.39573567  0.85894444     0.19600
H812        H  0.43273820  0.44320747  0.81987041     0.19600
C813        C  0.46752293  0.10304020  0.64054291    -0.06300
C814        C  0.43985136  0.10165497  0.64942593    -0.17400
C815        C  0.42068054  0.08029734  0.66683018     0.10900
C816        C  0.43173355  0.06320718  0.67863066    -0.06200
C817        C  0.45970801  0.06520967  0.67011020    -0.17400
C818        C  0.47525082  0.08203150  0.64951457     0.11000
S819        S  0.38153135  0.07390855  0.67088712    -0.32400
S820        S  0.49942387  0.07077746  0.63297258    -0.32400
H821        H  0.49493769  0.07985292  0.61007705     0.29000
H822        H  0.36833815  0.04416705  0.67871675     0.29000
H823        H  0.43220211  0.11619410  0.64181749     0.19600
H824        H  0.46763126  0.05098903  0.67797073     0.19600
C825        C  0.35178476  0.40726915  0.69588007    -0.06300
C826        C  0.35420959  0.38196878  0.70173641    -0.17400
C827        C  0.34243354  0.35706524  0.68648263     0.10900
C828        C  0.33339465  0.35925264  0.66262857    -0.06200
C829        C  0.32910288  0.38363021  0.65744978    -0.17400
C830        C  0.33600305  0.40624947  0.67439047     0.11000
S831        S  0.33749076  0.32291306  0.69934841    -0.32400
S832        S  0.32331970  0.43265811  0.66768006    -0.32400
H833        H  0.31954434  0.43852490  0.69211903     0.29000
H834        H  0.31669515  0.30411424  0.68184453     0.29000
H835        H  0.36483472  0.38119986  0.71851074     0.19600
H836        H  0.32059374  0.38543933  0.63994059     0.19600
C837        C  0.42127360  0.15562398  0.53574914    -0.06300
C838        C  0.43744751  0.17850554  0.55251727    -0.17400
C839        C  0.45993491  0.17856923  0.56765280     0.10900
C840        C  0.46730398  0.15554903  0.56582016    -0.06200
C841        C  0.45133057  0.13264586  0.54892811    -0.17400
C842        C  0.42863867  0.13253669  0.53378932     0.11000
S843        S  0.47727822  0.20697080  0.59047894    -0.32400
S844        S  0.41040323  0.10273661  0.51227801    -0.32400
H845        H  0.40699191  0.11989977  0.49411845     0.29000
H846        H  0.46160308  0.22258505  0.58485962     0.29000
H847        H  0.43172831  0.19613654  0.55421596     0.19600
H848        H  0.45633353  0.11449485  0.54777736     0.19600
C849        C  0.31020718  0.06627987  0.45022986    -0.06300
C850        C  0.32775960  0.05327538  0.45775646    -0.17400
C851        C  0.32789693  0.03003275  0.44461692     0.10900
C852        C  0.30885371  0.01821975  0.42412866    -0.06200
C853        C  0.29027067  0.03019432  0.41724667    -0.17400
C854        C  0.29122308  0.05432284  0.42946294     0.11000
S855        S  0.35455552  0.01796688  0.45394300    -0.32400
S856        S  0.26968543  0.07007840  0.41577837    -0.32400
H857        H  0.29474544  0.09946074  0.41627190     0.29000
H858        H  0.36482032  0.51605776  0.43046284     0.29000
H859        H  0.34237345  0.06195745  0.47346431     0.19600
H860        H  0.27655244  0.02200985  0.40101965     0.19600
C861        C  0.21871628  0.04828337  0.57623423    -0.06300
C862        C  0.21011930  0.06605523  0.56297815    -0.17400
C863        C  0.23015042  0.08667806  0.54561490     0.10900
C864        C  0.25964411  0.08920680  0.54027738    -0.06200
C865        C  0.26866486  0.07196309  0.55406263    -0.17400
C866        C  0.24884228  0.05199245  0.57218083     0.11000
S867        S  0.21667353  0.10972527  0.53173930    -0.32400
S868        S  0.26381744  0.03252988  0.58954416    -0.32400
H869        H  0.24501594  0.02757728  0.61043242     0.29000
H870        H  0.24601377  0.13573530  0.53156955     0.29000
H871        H  0.18764640  0.06435252  0.56667338     0.19600
H872        H  0.29117377  0.07373155  0.55051657     0.19600
C873        C  0.41226250  0.25317327  0.45817748    -0.06300
C874        C  0.40718835  0.27668799  0.45204812    -0.17400
C875        C  0.42915113  0.30102578  0.43810751     0.10900
C876        C  0.45683834  0.30184294  0.42937101    -0.06200
C877        C  0.46130234  0.27773795  0.43498338    -0.17400
C878        C  0.43963311  0.25374241  0.44939427     0.11000
S879        S  0.42035383  0.33041442  0.43232043    -0.32400
S880        S  0.44777813  0.22401815  0.45536062    -0.32400
H881        H  0.41649968  0.20135128  0.45755552     0.29000
H882        H  0.45139784  0.35356608  0.43051593     0.29000
H883        H  0.38651635  0.27670313  0.45903701     0.19600
H884        H  0.48109361  0.27681241  0.42735953     0.19600
C885        C  0.21210273  0.18588291  0.41824238    -0.06300
C886        C  0.24430446  0.20399920  0.41430187    -0.17400
C887        C  0.26567836  0.20465742  0.43095573     0.10900
C888        C  0.25471101  0.18618559  0.45190605    -0.06200
C889        C  0.22243986  0.16987708  0.45664939    -0.17400
C890        C  0.20113846  0.16923478  0.44006007     0.11000
S891        S  0.30639545  0.22739308  0.42321634    -0.32400
S892        S  0.16048951  0.14462685  0.44702964    -0.32400
H893        H  0.15266787  0.13385778  0.42328828     0.29000
H894        H  0.31337690  0.24246508  0.44552818     0.29000
H895        H  0.25286370  0.21688770  0.39762491     0.19600
H896        H  0.21357753  0.15586893  0.47274111     0.19600
C897        C  0.34184818  0.25518313  0.54364211    -0.06300
C898        C  0.31248208  0.24345676  0.55512989    -0.17400
C899        C  0.30658184  0.25962804  0.57285415     0.10900
C900        C  0.32989513  0.28902200  0.57814655    -0.06200
C901        C  0.35823675  0.30158687  0.56475638    -0.17400
C902        C  0.36466722  0.28485329  0.54800266     0.11000
S903        S  0.27051507  0.24007356  0.58991664    -0.32400
S904        S  0.40281259  0.30205389  0.53362576    -0.32400
H905        H  0.39335580  0.28552086  0.51207164     0.29000
H906        H  0.28442607  0.25013950  0.61256572     0.29000
H907        H  0.29495645  0.22054309  0.55187912     0.19600
H908        H  0.37627026  0.32415362  0.56848463     0.19600
C909        C  0.24987042  0.08650115  0.95335727    -0.06300
C910        C  0.26160558  0.08523724  0.93024062    -0.17400
C911        C  0.24386718  0.06249192  0.91400357     0.10900
C912        C  0.21317290  0.04055273  0.92085304    -0.06200
C913        C  0.20171322  0.04156750  0.94418209    -0.17400
C914        C  0.22006932  0.06360239  0.96075079     0.11000
S915        S  0.26170763  0.06426607  0.88456823    -0.32400
S916        S  0.20311742  0.06275247  0.99018653    -0.32400
H917        H  0.22904233  0.06639119  0.00300303     0.29000
H918        H  0.23737889  0.03919013  0.87388260     0.29000
H919        H  0.28456889  0.10270838  0.92450951     0.19600
H920        H  0.17782823  0.02593311  0.94925117     0.19600
C921        C  0.18831218  0.15484202  0.06621303    -0.06300
C922        C  0.18187782  0.14832168  0.04161845    -0.17400
C923        C  0.20387269  0.14753505  0.02553199     0.10900
C924        C  0.23366410  0.15417974  0.03397010    -0.06200
C925        C  0.24029132  0.16162875  0.05849693    -0.17400
C926        C  0.21808672  0.16202062  0.07462817     0.11000
S927        S  0.19136788  0.13610162  0.99489985    -0.32400
S928        S  0.22816795  0.17214318  0.10597488    -0.32400
H929        H  0.25825909  0.17569259  0.10448425     0.29000
H930        H  0.20623491  0.11909342  0.99235912     0.29000
H931        H  0.15894340  0.14227959  0.03515422     0.19600
H932        H  0.26313299  0.16749732  0.06498555     0.19600
C933        C  0.41559833  0.18220454  0.96592918    -0.06300
C934        C  0.41313662  0.15464469  0.96023281    -0.17400
C935        C  0.43175962  0.15191491  0.94216004     0.10900
C936        C  0.45325620  0.17713555  0.92846247    -0.06200
C937        C  0.45598616  0.20489804  0.93402193    -0.17400
C938        C  0.43785516  0.20779130  0.95285181     0.11000
S939        S  0.42648179  0.11522312  0.93747062    -0.32400
S940        S  0.44500463  0.24469289  0.95981420    -0.32400
H941        H  0.44280898  0.24046151  0.98517031     0.29000
H942        H  0.45740489  0.12496142  0.93021798     0.29000
H943        H  0.39645240  0.13477373  0.97007307     0.19600
H944        H  0.47218013  0.22438260  0.92356525     0.19600
C945        C  0.31057228  0.07446271  0.04938282    -0.06300
C946        C  0.29148400  0.06611118  0.07039347    -0.17400
C947        C  0.29000169  0.04421704  0.08620857     0.10900
C948        C  0.30807499  0.03048340  0.08095952    -0.06200
C949        C  0.32502241  0.03712358  0.05897046    -0.17400
C950        C  0.32577851  0.05832391  0.04283829     0.11000
S951        S  0.26671996  0.53575392  0.11290537    -0.32400
S952        S  0.34746455  0.06554771  0.01443809    -0.32400
H953        H  0.35235749  0.04098569  0.01567856     0.29000
H954        H  0.26575489  0.50898319  0.11895725     0.29000
H955        H  0.27961112  0.07826305  0.07550254     0.19600
H956        H  0.33980433  0.02757513  0.05531128     0.19600
C957        C  0.43126984  0.25545692  0.04934514    -0.06300
C958        C  0.44818379  0.24906566  0.06637024    -0.17400
C959        C  0.47129867  0.27116668  0.08036247     0.10900
C960        C  0.47876082  0.30101759  0.07726399    -0.06200
C961        C  0.46303489  0.30792295  0.05968685    -0.17400
C962        C  0.43990610  0.28569205  0.04542167     0.11000
S963        S  0.48879362  0.25923949  0.10297759    -0.32400
S964        S  0.42283564  0.29763396  0.02256988    -0.32400
H965        H  0.42462940  0.27928937  0.00439674     0.29000
H966        H  0.99051271  0.27881110  0.12089766     0.29000
H967        H  0.44254304  0.22630539  0.06980634     0.19600
H968        H  0.46868129  0.33085739  0.05723281     0.19600
C969        C  0.33613057  0.26323108  0.96392860    -0.06300
C970        C  0.36468303  0.28992731  0.96262061    -0.17400
C971        C  0.36842513  0.31424770  0.94870874     0.10900
C972        C  0.34311507  0.31212683  0.93546772    -0.06200
C973        C  0.31426327  0.28614665  0.93756758    -0.17400
C974        C  0.31032115  0.26172301  0.95148232     0.11000
S975        S  0.40661193  0.34691473  0.94802169    -0.32400
S976        S  0.27263649  0.22819198  0.95094495    -0.32400
H977        H  0.25623604  0.24056223  0.93981221     0.29000
H978        H  0.39809960  0.36694005  0.93852378     0.29000
H979        H  0.38447097  0.29177748  0.97222249     0.19600
H980        H  0.29523700  0.28434787  0.92693114     0.19600
O981        O  0.34916946  0.62080589  0.03261913    -0.81000
O982        O  0.35813833  0.73503883  0.98289384    -0.65700
O983        O  0.34271572  0.67139249  0.02717405    -1.12300
C984        C  0.26840365  0.61389345  0.96740833     1.05900
O985        O  0.30762769  0.71654732  0.98434665    -0.78900
O986        O  0.25992379  0.66325108  0.99572298    -0.66500
Ni987      Ni  0.37484808  0.66330505  0.03549727     1.34900
C988        C  0.25934915  0.65541192  0.01755359     0.84600
O989        O  0.38443039  0.73281232  0.02562287    -0.79500
O990        O  0.40374838  0.70484663  0.03990912    -0.89700
C991        C  0.33424499  0.73730519  0.97782165     0.84200
O992        O  0.38996408  0.66441332  0.00334036    -0.67900
O993        O  0.27448275  0.63856013  0.95744232    -0.87200
C994        C  0.39609586  0.68293184  0.98619445     0.85000
C995        C  0.40491330  0.72991097  0.03728778     1.06600
H996        H  0.33283160  0.66820429  0.97268287     0.38400
O997        O  0.32230491  0.67243155  0.98574883    -1.09900
O998        O  0.27979494  0.64960371  0.02568919    -0.66500
Ni999      Ni  0.30961365  0.64130865  0.00876081     1.26300
O1000       O  0.38550341  0.70101743  0.98601046    -0.66800
O1001       O  0.27752843  0.61186547  0.98854908    -0.79100
C1002       C  0.32041583  0.60357082  0.03744195     0.84400
O1003       O  0.30011535  0.61092315  0.03256151    -0.66200
Ni1004     Ni  0.29146710  0.67767924  0.97085936     1.27400
Ni1005     Ni  0.35306746  0.70365964  0.00502081     1.26100
H1006       H  0.33435415  0.67494551  0.04203256     0.38900
O1007       O  0.40595769  0.68386730  0.51226482    -0.81000
O1008       O  0.30362610  0.69760630  0.46961077    -0.65700
O1009       O  0.34773226  0.67688380  0.51421672    -1.12300
C1010       C  0.31203863  0.59198120  0.46378405     1.05900
O1011       O  0.26346817  0.65342713  0.47618554    -0.78900
O1012       O  0.26547953  0.61060592  0.50132959    -0.66500
Ni1013     Ni  0.38742621  0.70611359  0.52489425     1.34900
C1014       C  0.27942881  0.60699061  0.51884826     0.84600
O1015       O  0.33219329  0.72198979  0.51140654    -0.79500
O1016       O  0.36981784  0.72940681  0.53769883    -0.89700
C1017       C  0.27518646  0.67905243  0.46650989     0.84200
O1018       O  0.40312193  0.73132264  0.49694042    -0.67900
O1019       O  0.28871204  0.59592616  0.46182186    -0.87200
C1020       C  0.39150966  0.73141771  0.47670235     0.85000
C1021       C  0.34855600  0.73440278  0.52998180     1.06600
H1022       H  0.33103985  0.65977356  0.45958135     0.38400
O1023       O  0.32016379  0.65394106  0.47512821    -1.09900
O1024       O  0.30883908  0.61693756  0.51831969    -0.66500
Ni1025     Ni  0.34315181  0.64292740  0.49618092     1.26300
O1026       O  0.36292840  0.71406764  0.47201913    -0.66800
O1027       O  0.33588160  0.60884443  0.47655896    -0.79100
C1028       C  0.39819025  0.65823475  0.52058005     0.84400
O1029       O  0.37071008  0.63666209  0.51705394    -0.66200
Ni1030     Ni  0.27780425  0.62571041  0.46931950     1.27400
Ni1031     Ni  0.32663520  0.68866231  0.49231176     1.26100
H1032       H  0.33475222  0.66970452  0.52874934     0.38900
N1033       N  0.39029544  0.48913812  0.71152208    -0.36700
N1034       N  0.42386245  0.54438118  0.74155094    -0.57300
N1035       N  0.41351900  0.50701992  0.78207206    -0.36700
N1036       N  0.38263871  0.95285853  0.75284494    -0.57300
C1037       C  0.40606962  0.51117173  0.69501735     0.26800
C1038       C  0.38401843  0.96303516  0.70124710     0.26800
C1039       C  0.43593457  0.53427500  0.78936143     0.26800
C1040       C  0.41565548  0.98615005  0.79551780     0.26800
C1041       C  0.41400761  0.55247191  0.72188597     0.35500
C1042       C  0.42410337  0.56167843  0.76016910     0.35500
C1043       C  0.36307797  0.93149705  0.73760294     0.35500
C1044       C  0.37553609  0.94102374  0.77545000     0.35500
C1045       C  0.41037063  0.49893156  0.67373673    -0.22000
C1046       C  0.39667822  0.96859755  0.67788926    -0.22000
C1047       C  0.45390857  0.53046083  0.80651989    -0.22000
C1048       C  0.44048772  0.00036954  0.81096671    -0.22000
C1049       C  0.40774285  0.57504746  0.72802814    -0.23100
C1050       C  0.41240257  0.57960269  0.75263623    -0.23100
C1051       C  0.34305017  0.90601418  0.75064630    -0.23100
C1052       C  0.35125630  0.91188351  0.77457422    -0.23100
C1053       C  0.41450796  0.54152824  0.69845882    -0.18400
C1054       C  0.36573982  0.93441463  0.71198561    -0.18400
C1055       C  0.39303047  0.95555753  0.79615003    -0.18400
C1056       C  0.43636216  0.56124996  0.78305861    -0.18400
H1057       H  0.42094837  0.51017536  0.65674154     0.14500
H1058       H  0.39584773  0.95254194  0.66484078     0.14500
H1059       H  0.47299477  0.54683083  0.81679526     0.14500
H1060       H  0.44822336  0.99096945  0.82479072     0.14500
H1061       H  0.40006469  0.58681702  0.71652498     0.12800
H1062       H  0.40805093  0.59467917  0.76346918     0.12800
H1063       H  0.32494728  0.88511991  0.74367709     0.12800
H1064       H  0.34098609  0.89608846  0.78941350     0.12800
H1065       H  0.38118660  0.49150191  0.72810675     0.26000
H1066       H  0.39454508  0.50274419  0.77142151     0.26000
N1067       N  0.10771599  0.60784252  0.71937534    -0.36700
N1068       N  0.12299081  0.57959890  0.75666872    -0.57300
N1069       N  0.08244108  0.59065493  0.79036213    -0.36700
N1070       N  0.07089993  0.62305299  0.75244493    -0.57300
C1071       C  0.13282791  0.60712051  0.71000227     0.26800
C1072       C  0.10548564  0.62967448  0.70783476     0.26800
C1073       C  0.09777350  0.58244366  0.80571238     0.26800
C1074       C  0.07043237  0.60489626  0.80345458     0.26800
C1075       C  0.12803607  0.56750238  0.73641692     0.35500
C1076       C  0.11510753  0.55927856  0.77458889     0.35500
C1077       C  0.05938158  0.62256722  0.73029123     0.35500
C1078       C  0.04703691  0.61480217  0.76859627     0.35500
C1079       C  0.14784154  0.62989212  0.69302547    -0.22000
C1080       C  0.13055425  0.64424721  0.69170303    -0.22000
C1081       C  0.09560276  0.59153348  0.82904448    -0.22000
C1082       C  0.07813183  0.60566674  0.82763938    -0.22000
C1083       C  0.12251624  0.53901212  0.74146448    -0.23100
C1084       C  0.11486322  0.53417647  0.76588407    -0.23100
C1085       C  0.02780758  0.61296380  0.73230590    -0.23100
C1086       C  0.02018746  0.60839228  0.75670403    -0.23100
C1087       C  0.13842178  0.58310621  0.71400902    -0.18400
C1088       C  0.07811963  0.63203652  0.70882857    -0.18400
C1089       C  0.05029128  0.61422394  0.79393282    -0.18400
C1090       C  0.11053037  0.56428985  0.79907850    -0.18400
H1091       H  0.16803643  0.63454410  0.68182496     0.14500
H1092       H  0.13478828  0.66205590  0.67922593     0.14500
H1093       H  0.10460132  0.58740891  0.84544880     0.14500
H1094       H  0.07104554  0.61450401  0.84279379     0.14500
H1095       H  0.12367040  0.52336377  0.72897302     0.12800
H1096       H  0.10845730  0.51427459  0.77621505     0.12800
H1097       H  0.01188145  0.60923380  0.71778718     0.12800
H1098       H  0.99722376  0.59927892  0.76458212     0.12800
H1099       H  0.08994713  0.59101321  0.72988974     0.26000
H1100       H  0.07758385  0.58397654  0.77236454     0.26000
N1101       N  0.00896838  0.88830644  0.78433431    -0.36700
N1102       N  0.05626595  0.90314620  0.74738840    -0.57300
N1103       N  0.00940363  0.87819067  0.71045871    -0.36700
N1104       N  0.46142283  0.86419563  0.74821498    -0.57300
C1105       C  0.03504866  0.90912783  0.79526480     0.26800
C1106       C  0.48437867  0.88874224  0.79567435     0.26800
C1107       C  0.03516016  0.89498169  0.69642541     0.26800
C1108       C  0.48427028  0.87123324  0.69671546     0.26800
C1109       C  0.07326696  0.90689882  0.76726914     0.35500
C1110       C  0.07459063  0.90621592  0.72791042     0.35500
C1111       C  0.44330024  0.85429656  0.76859334     0.35500
C1112       C  0.44331622  0.84899747  0.72947104     0.35500
C1113       C  0.02683895  0.92276059  0.81344860    -0.22000
C1114       C  0.49491306  0.91020386  0.81361087    -0.22000
C1115       C  0.02620239  0.89690976  0.67308708    -0.22000
C1116       C  0.49415114  0.88154156  0.67314856    -0.22000
C1117       C  0.10188712  0.91004206  0.76048889    -0.23100
C1118       C  0.10338123  0.91132234  0.73550264    -0.23100
C1119       C  0.41368913  0.83201471  0.76287658    -0.23100
C1120       C  0.41343321  0.82925977  0.73800739    -0.23100
C1121       C  0.06579803  0.91475465  0.79001248    -0.18400
C1122       C  0.45264917  0.86802954  0.79149758    -0.18400
C1123       C  0.45267564  0.85539533  0.70474469    -0.18400
C1124       C  0.06660539  0.90881161  0.70395553    -0.18400
H1125       H  0.04224703  0.94024456  0.82543290     0.14500
H1126       H  0.48095623  0.91555392  0.82580679     0.14500
H1127       H  0.04110784  0.90796187  0.65743951     0.14500
H1128       H  0.47995695  0.87880541  0.65761523     0.14500
H1129       H  0.12101918  0.91454091  0.77220171     0.12800
H1130       H  0.12388512  0.91671305  0.72457751     0.12800
H1131       H  0.39391710  0.82004583  0.77514742     0.12800
H1132       H  0.39333823  0.81471628  0.72750709     0.12800
H1133       H  0.00776856  0.87255552  0.77187817     0.26000
H1134       H  0.00874013  0.87079218  0.72808768     0.26000
C1135       C  0.48719593  0.65191564  0.58397094     0.02100
C1136       C  0.01930007  0.67132361  0.58618655     0.02100
C1137       C  0.03498799  0.66642964  0.60509942    -0.18400
C1138       C  0.01910379  0.64460962  0.62303034     0.02100
C1139       C  0.48688740  0.62557443  0.62117205     0.02100
C1140       C  0.47153145  0.62917393  0.60135540    -0.18400
H1141       H  0.44661505  0.61464406  0.59985742     0.04200
H1142       H  0.06000752  0.68046497  0.60635991     0.04200
C1143       C  0.17791912  0.99775679  0.59381493     0.02100
C1144       C  0.19698264  0.52942698  0.59601817     0.02100
C1145       C  0.19211853  0.54362042  0.61616897    -0.18400
C1146       C  0.16989014  0.52750679  0.63461081     0.02100
C1147       C  0.15169096  0.99560942  0.63280684     0.02100
C1148       C  0.15556110  0.98183542  0.61205987    -0.18400
H1149       H  0.14183152  0.95780409  0.61058668     0.04200
H1150       H  0.20568162  0.56766370  0.61743091     0.04200
C1151       C  0.33627614  0.85359804  0.91705214     0.02100
C1152       C  0.34848078  0.83390552  0.91600002     0.02100
C1153       C  0.36578789  0.83421677  0.89523993    -0.18400
C1154       C  0.37451227  0.85574488  0.87670032     0.02100
C1155       C  0.36564715  0.87804972  0.87944922     0.02100
C1156       C  0.34583928  0.87586744  0.89912912    -0.18400
H1157       H  0.33765220  0.89178391  0.90062359     0.04200
H1158       H  0.37232833  0.81714181  0.89352642     0.04200
C1159       C  0.30482197  0.81305289  0.60463084     0.02100
C1160       C  0.32800003  0.80489635  0.60046636     0.02100
C1161       C  0.35170992  0.81324833  0.61724200    -0.18400
C1162       C  0.35408518  0.83021952  0.63774670     0.02100
C1163       C  0.33087314  0.83841372  0.64256132     0.02100
C1164       C  0.30654729  0.82944655  0.62574546    -0.18400
H1165       H  0.28906601  0.83602056  0.62871509     0.04200
H1166       H  0.36935035  0.80687973  0.61393138     0.04200
C1167       C  0.19183486  0.51993746  0.90259924     0.02100
C1168       C  0.18324927  0.98950828  0.90145107     0.02100
C1169       C  0.16414349  0.97201155  0.88261893    -0.18400
C1170       C  0.15184880  0.98358989  0.86579502     0.02100
C1171       C  0.15950998  0.51381442  0.86756445     0.02100
C1172       C  0.17925184  0.53143901  0.88600637    -0.18400
H1173       H  0.18499610  0.55451866  0.88746905     0.04200
H1174       H  0.15812260  0.94884301  0.88142210     0.04200
C1175       C  0.46996856  0.67368387  0.90646481     0.02100
C1176       C  0.00205868  0.68395344  0.90487639     0.02100
C1177       C  0.01428443  0.67543985  0.88483000    -0.18400
C1178       C  0.99514000  0.65864729  0.86545745     0.02100
C1179       C  0.46488226  0.65108823  0.86693923     0.02100
C1180       C  0.45144025  0.65738253  0.88697551    -0.18400
H1181       H  0.42649189  0.64877255  0.88773144     0.04200
H1182       H  0.03867742  0.68182628  0.88490590     0.04200
O1183       O  0.23189938  0.84482503  0.53265038    -0.81000
O1184       O  0.12544609  0.86037372  0.48387936    -0.65700
O1185       O  0.17380347  0.84187198  0.52745608    -1.12300
C1186       C  0.15344434  0.76733394  0.46746840     1.05900
O1187       O  0.09194110  0.81266661  0.48607867    -0.78900
O1188       O  0.09589302  0.76485962  0.49793536    -0.66500
Ni1189     Ni  0.21506461  0.87133590  0.53531694     1.34900
C1190       C  0.10497281  0.76350598  0.51893505     0.84600
O1191       O  0.15449497  0.88488709  0.52669582    -0.79500
O1192       O  0.20299724  0.90112755  0.53964089    -0.89700
C1193       C  0.09907964  0.83833209  0.47848287     0.84200
O1194       O  0.22900513  0.88420854  0.50297021    -0.67900
O1195       O  0.13343663  0.77347005  0.45891838    -0.87200
C1196       C  0.21656204  0.89155606  0.48645806     0.85000
C1197       C  0.17857127  0.90342485  0.53830243     1.06600
H1198       H  0.16550312  0.83139542  0.47263299     0.38400
O1199       O  0.15107422  0.82231924  0.48617471    -1.09900
O1200       O  0.13235578  0.78176385  0.52602479    -0.66500
Ni1201     Ni  0.17054080  0.80922910  0.50848433     1.26300
O1202       O  0.18746663  0.88287925  0.48687282    -0.66800
O1203       O  0.16765790  0.77773574  0.48745704    -0.79100
C1204       C  0.21954066  0.81741335  0.53815554     0.84400
O1205       O  0.19196866  0.79888288  0.53197792    -0.66200
Ni1206     Ni  0.11318786  0.79360670  0.47250052     1.27400
Ni1207     Ni  0.15157824  0.85345144  0.50581301     1.26100
H1208       H  0.16179128  0.83446504  0.54242804     0.38900
O1209       O  0.19179690  0.78650357  0.01824069    -0.81000
O1210       O  0.20014508  0.89475134  0.97040431    -0.65700
O1211       O  0.17796050  0.83204898  0.01647406    -1.12300
C1212       C  0.09585138  0.77673030  0.96406247     1.05900
O1213       O  0.15112071  0.88501202  0.96978252    -0.78900
O1214       O  0.11282778  0.84290905  0.00061005    -0.66500
Ni1215     Ni  0.20895293  0.82613408  0.03081857     1.34900
C1216       C  0.10475380  0.82301147  0.01677719     0.84600
O1217       O  0.22301939  0.89276572  0.01405512    -0.79500
O1218       O  0.22689916  0.86535096  0.04417764    -0.89700
C1219       C  0.17990894  0.90214234  0.96522880     0.84200
O1220       O  0.23992982  0.84003671  0.00517685    -0.67900
O1221       O  0.09519466  0.80106664  0.96423531    -0.87200
C1222       C  0.23999905  0.84832577  0.98350107     0.85000
C1223       C  0.23250884  0.89015907  0.03486093     1.06600
H1224       H  0.16543264  0.83093874  0.96021619     0.38400
O1225       O  0.15738610  0.83425926  0.97521262    -1.09900
O1226       O  0.11419656  0.80397776  0.01616811    -0.66500
Ni1227     Ni  0.14688552  0.80155718  0.99690114     1.26300
O1228       O  0.22019960  0.85551799  0.97622266    -0.66800
O1229       O  0.11597982  0.77311973  0.97557115    -0.79100
C1230       C  0.16420888  0.76602766  0.02336074     0.84400
O1231       O  0.14118274  0.76969991  0.01844428    -0.66200
Ni1232     Ni  0.12508111  0.84259570  0.96789430     1.27400
Ni1233     Ni  0.19069264  0.86378993  0.99379835     1.26100
H1234       H  0.16756848  0.83603862  0.02978530     0.38900
N1235       N  0.48912752  0.61739489  0.21513901    -0.36700
N1236       N  0.03942692  0.63454803  0.24764391    -0.57300
N1237       N  0.49311077  0.60348192  0.28634685    -0.36700
N1238       N  0.44250048  0.58862477  0.25333083    -0.57300
C1239       C  0.01408746  0.63677577  0.20149440     0.26800
C1240       C  0.46341132  0.61444514  0.20456927     0.26800
C1241       C  0.01944134  0.61891389  0.29963032     0.26800
C1242       C  0.46861272  0.59178057  0.30230217     0.26800
C1243       C  0.05565194  0.63904536  0.22649243     0.35500
C1244       C  0.05862411  0.63669003  0.26550829     0.35500
C1245       C  0.42458896  0.57793851  0.23347748     0.35500
C1246       C  0.42596707  0.57047962  0.27212666     0.35500
C1247       C  0.00422498  0.64714633  0.18237047    -0.22000
C1248       C  0.47194649  0.63284725  0.18423094    -0.22000
C1249       C  0.01158852  0.61683266  0.32409397    -0.22000
C1250       C  0.47979275  0.59886950  0.32576402    -0.22000
C1251       C  0.08540825  0.64421990  0.23110033    -0.23100
C1252       C  0.08758586  0.64408955  0.25582897    -0.23100
C1253       C  0.39650670  0.55310523  0.23975632    -0.23100
C1254       C  0.39674743  0.54929769  0.26428349    -0.23100
C1255       C  0.04408671  0.64031843  0.20349535    -0.18400
C1256       C  0.43302390  0.59113366  0.21002267    -0.18400
C1257       C  0.43694144  0.57279041  0.29617838    -0.18400
C1258       C  0.05042045  0.63181635  0.29043552    -0.18400
H1259       H  0.01844547  0.66162632  0.16763864     0.14500
H1260       H  0.45656432  0.63435363  0.17131616     0.14500
H1261       H  0.02721698  0.62575417  0.33918000     0.14500
H1262       H  0.46713046  0.59191775  0.34286954     0.14500
H1263       H  0.10411975  0.64840929  0.21841388     0.12800
H1264       H  0.10824457  0.64920599  0.26560775     0.12800
H1265       H  0.37747668  0.53910912  0.22812421     0.12800
H1266       H  0.37747799  0.53221433  0.27471923     0.12800
H1267       H  0.48935688  0.60262400  0.22780451     0.26000
H1268       H  0.49218557  0.59832463  0.26806387     0.26000
N1269       N  0.39193990  0.89029296  0.28332713    -0.36700
N1270       N  0.42709946  0.88087551  0.24577044    -0.57300
N1271       N  0.40469256  0.90897397  0.21240152    -0.36700
N1272       N  0.36839039  0.91707909  0.25079757    -0.57300
C1273       C  0.39929368  0.87102699  0.29370072     0.26800
C1274       C  0.36855080  0.88976397  0.29684723     0.26800
C1275       C  0.41531905  0.89541017  0.19693691     0.26800
C1276       C  0.38579273  0.91567988  0.19974342     0.26800
C1277       C  0.44119603  0.87750381  0.26528323     0.35500
C1278       C  0.44599476  0.88519257  0.22638608     0.35500
C1279       C  0.36005906  0.92454490  0.27209669     0.35500
C1280       C  0.36731868  0.93507159  0.23359560     0.35500
C1281       C  0.37939980  0.85709915  0.31345192    -0.22000
C1282       C  0.36013821  0.86922090  0.31558202    -0.22000
C1283       C  0.40286912  0.89326940  0.17421443    -0.22000
C1284       C  0.38414712  0.90601166  0.17600072    -0.22000
C1285       C  0.46939358  0.87971018  0.25826179    -0.23100
C1286       C  0.47209096  0.88402070  0.23342528    -0.23100
C1287       C  0.35282394  0.94688369  0.26831079    -0.23100
C1288       C  0.35776220  0.95381388  0.24394006    -0.23100
C1289       C  0.42745476  0.87096837  0.28884169    -0.18400
C1290       C  0.35821629  0.91058567  0.29460321    -0.18400
C1291       C  0.37290304  0.93314594  0.20852714    -0.18400
C1292       C  0.43843359  0.88789846  0.20234423    -0.18400
H1293       H  0.38029675  0.84152367  0.32604349     0.14500
H1294       H  0.34298488  0.86458530  0.32992732     0.14500
H1295       H  0.40752526  0.88429215  0.15787620     0.14500
H1296       H  0.37151315  0.90868801  0.16130826     0.14500
H1297       H  0.48606479  0.87804971  0.26962858     0.12800
H1298       H  0.49104645  0.88628207  0.22184805     0.12800
H1299       H  0.34499454  0.95728278  0.28166118     0.12800
H1300       H  0.35454538  0.97063598  0.23493015     0.12800
H1301       H  0.40600242  0.90691978  0.27087762     0.26000
H1302       H  0.41316838  0.91689030  0.22958873     0.26000
C1303       C  0.31315962  0.49866100  0.40630283     0.02100
C1304       C  0.30255420  0.96826165  0.41063794     0.02100
C1305       C  0.31015050  0.95272710  0.39336512    -0.18400
C1306       C  0.33057066  0.96733486  0.37361881     0.02100
C1307       C  0.34258056  0.49835594  0.36977201     0.02100
C1308       C  0.33047731  0.51225404  0.38504060    -0.18400
H1309       H  0.33565941  0.53472979  0.38104200     0.04200
H1310       H  0.30071276  0.92894712  0.39571117     0.04200
N1311       N  0.11962058  0.00832138  0.28783710    -0.36700
N1312       N  0.13961854  0.54844227  0.24618106    -0.57300
N1313       N  0.11346022  0.99903009  0.21385719    -0.36700
N1314       N  0.09277900  0.95804137  0.25506619    -0.57300
C1315       C  0.12725806  0.53426025  0.29849789     0.26800
C1316       C  0.10044486  0.98628876  0.30354028     0.26800
C1317       C  0.11635126  0.52033652  0.19864106     0.26800
C1318       C  0.09468998  0.97260457  0.20327153     0.26800
C1319       C  0.15655510  0.56761696  0.26376013     0.35500
C1320       C  0.14933362  0.56338021  0.22477296     0.35500
C1321       C  0.08735342  0.94303817  0.27637271     0.35500
C1322       C  0.08933364  0.93874007  0.23706491     0.35500
C1323       C  0.11265664  0.52882601  0.32115818    -0.22000
C1324       C  0.09667234  0.99918102  0.32462325    -0.22000
C1325       C  0.09911504  0.50712851  0.17807257    -0.22000
C1326       C  0.08482953  0.97744231  0.18125474    -0.22000
C1327       C  0.17831865  0.59451631  0.25333846    -0.23100
C1328       C  0.17268624  0.59231682  0.22886612    -0.23100
C1329       C  0.07961022  0.91382117  0.27170912    -0.23100
C1330       C  0.08241007  0.91155815  0.24707122    -0.23100
C1331       C  0.14798052  0.56309211  0.28878654    -0.18400
C1332       C  0.08740715  0.95503657  0.29969678    -0.18400
C1333       C  0.08856929  0.94439061  0.21189945    -0.18400
C1334       C  0.13494145  0.55161215  0.20227525    -0.18400
H1335       H  0.11331257  0.54483951  0.33416377     0.14500
H1336       H  0.08435094  0.98852692  0.34129331     0.14500
H1337       H  0.09707604  0.51771466  0.16187961     0.14500
H1338       H  0.07008017  0.96094748  0.16829289     0.14500
H1339       H  0.19446038  0.61459496  0.26264801     0.12800
H1340       H  0.18392006  0.61047743  0.21600272     0.12800
H1341       H  0.07239811  0.89563852  0.28443456     0.12800
H1342       H  0.07846306  0.89161086  0.23771109     0.12800
H1343       H  0.12956324  0.00570134  0.27184269     0.26000
H1344       H  0.12676039  0.00185198  0.22905194     0.26000
C1345       C  0.31674117  0.51547411  0.09971569     0.02100
C1346       C  0.30575068  0.98466212  0.10016691     0.02100
C1347       C  0.31572900  0.97265800  0.11849239    -0.18400
C1348       C  0.33618484  0.99078371  0.13635388     0.02100
C1349       C  0.34792213  0.52153800  0.13522825     0.02100
C1350       C  0.33745192  0.53351554  0.11744939    -0.18400
H1351       H  0.34622931  0.55734003  0.11700440     0.04200
H1352       H  0.30768887  0.94896964  0.11873159     0.04200
C1353       C  0.19106808  0.68149166  0.39789610     0.02100
C1354       C  0.16801112  0.69008812  0.39927742     0.02100
C1355       C  0.14769018  0.68308599  0.37989041    -0.18400
C1356       C  0.14776084  0.66555698  0.36041382     0.02100
C1357       C  0.17024488  0.65592358  0.35928216     0.02100
C1358       C  0.19287910  0.66605160  0.37737401    -0.18400
H1359       H  0.21126194  0.66041768  0.37625421     0.04200
H1360       H  0.13066238  0.69052779  0.38035409     0.04200
C1361       C  0.14754448  0.66688299  0.08317933     0.02100
C1362       C  0.16322615  0.65015293  0.08359355     0.02100
C1363       C  0.15512222  0.62838718  0.10182922    -0.18400
C1364       C  0.13516184  0.62536735  0.12154331     0.02100
C1365       C  0.12053392  0.64315260  0.12144913     0.02100
C1366       C  0.12598252  0.66257657  0.10190244    -0.18400
H1367       H  0.11470660  0.67603487  0.10209359     0.04200
H1368       H  0.16629566  0.61485467  0.10149115     0.04200
C1369       C  0.01088070  0.84456397  0.41517202     0.02100
C1370       C  0.47870397  0.82548159  0.41153553     0.02100
C1371       C  0.46585619  0.82824013  0.38975936    -0.18400
C1372       C  0.48354420  0.85063137  0.37264616     0.02100
C1373       C  0.01513365  0.87036161  0.37679458     0.02100
C1374       C  0.02836141  0.86712488  0.39799759    -0.18400
H1375       H  0.05295869  0.88200096  0.40090009     0.04200
H1376       H  0.44153737  0.81296592  0.38620926     0.04200
C1377       C  0.03128017  0.83398559  0.09638156     0.02100
C1378       C  0.49966921  0.82508357  0.09414428     0.02100
C1379       C  0.48559736  0.83578966  0.11049412    -0.18400
C1380       C  0.50110580  0.85231206  0.13087448     0.02100
C1381       C  0.03225902  0.85977556  0.13448224     0.02100
C1382       C  0.04737165  0.85148717  0.11650419    -0.18400
H1383       H  0.07190192  0.85878676  0.11816424     0.04200
H1384       H  0.46151182  0.82986261  0.10794983     0.04200
C1385       C  0.07072525  0.93394158  0.32060529    -0.06300
C1386       C  0.04527590  0.93465337  0.33188596    -0.17400
C1387       C  0.03077549  0.91782493  0.35278951     0.10900
C1388       C  0.03551736  0.89393341  0.35886919    -0.06200
C1389       C  0.06072952  0.89274420  0.34773594    -0.17400
C1390       C  0.07982302  0.91393907  0.33012746     0.11000
S1391       S  0.01202542  0.93187102  0.37313910    -0.32400
S1392       S  0.11568989  0.91471931  0.32149105    -0.32400
H1393       H  0.13115952  0.94393814  0.31222687     0.29000
H1394       H  0.01090050  0.91534151  0.39372521     0.29000
H1395       H  0.03847065  0.95044428  0.32571116     0.19600
H1396       H  0.06627616  0.87590568  0.35347336     0.19600
C1397       C  0.07809841  0.91960158  0.19369699    -0.06300
C1398       C  0.05001278  0.89297993  0.19773972    -0.17400
C1399       C  0.03769246  0.87099136  0.17998432     0.10900
C1400       C  0.05013535  0.87758536  0.15596205    -0.06200
C1401       C  0.07931861  0.90324476  0.15222629    -0.17400
C1402       C  0.09424009  0.92316803  0.17121630     0.11000
S1403       S  0.50735433  0.83431273  0.18967292    -0.32400
S1404       S  0.13350146  0.95299669  0.16549135    -0.32400
H1405       H  0.14216941  0.95720054  0.18998091     0.29000
H1406       H  0.51279771  0.81898273  0.17076221     0.29000
H1407       H  0.03766079  0.88893284  0.21496441     0.19600
H1408       H  0.09044240  0.90810958  0.13437760     0.19600
C1409       C  0.15841541  0.58962569  0.30526024    -0.06300
C1410       C  0.17033362  0.58918932  0.32811135    -0.17400
C1411       C  0.17313239  0.60947008  0.34622056     0.10900
C1412       C  0.16972720  0.63447828  0.34033145    -0.06200
C1413       C  0.16320581  0.63750670  0.31608068    -0.17400
C1414       C  0.15405177  0.61400850  0.29968632     0.11000
S1415       S  0.17657416  0.59932848  0.37682633    -0.32400
S1416       S  0.13305218  0.61471371  0.27366320    -0.32400
H1417       H  0.11077636  0.58425496  0.27485278     0.29000
H1418       H  0.15384912  0.60555326  0.38649189     0.29000
H1419       H  0.17382634  0.57073781  0.33285233     0.19600
H1420       H  0.16181379  0.65684933  0.31052187     0.19600
C1421       C  0.13426602  0.60679256  0.14290148    -0.06300
C1422       C  0.16281148  0.61096526  0.15161134    -0.17400
C1423       C  0.16400196  0.59239315  0.16960887     0.10900
C1424       C  0.13636471  0.57234331  0.18250108    -0.06200
C1425       C  0.10810297  0.56971555  0.17488685    -0.17400
C1426       C  0.10658732  0.58359135  0.15356682     0.11000
S1427       S  0.20100004  0.59394508  0.17340628    -0.32400
S1428       S  0.06998046  0.56514544  0.13831583    -0.32400
H1429       H  0.08237061  0.57553728  0.11487051     0.29000
H1430       H  0.18902575  0.56524648  0.18331598     0.29000
H1431       H  0.18445897  0.62751419  0.14311280     0.19600
H1432       H  0.08650825  0.55353759  0.18377390     0.19600
C1433       C  0.46783749  0.85357741  0.35104214    -0.06300
C1434       C  0.45658238  0.87351743  0.35234907    -0.17400
C1435       C  0.44750917  0.88217864  0.33158158     0.10900
C1436       C  0.44329500  0.86616772  0.30975895    -0.06200
C1437       C  0.45162150  0.84376103  0.30900867    -0.17400
C1438       C  0.46491289  0.83805833  0.32926908     0.11000
S1439       S  0.94301149  0.91437002  0.33412775    -0.32400
S1440       S  0.47701123  0.81040669  0.32765543    -0.32400
H1441       H  0.47005218  0.80324090  0.30306073     0.29000
H1442       H  0.45286821  0.92440277  0.30972975     0.29000
H1443       H  0.95630866  0.88303050  0.36951459     0.19600
H1444       H  0.44775328  0.83087395  0.29262396     0.19600
C1445       C  0.48354147  0.86146674  0.14790065    -0.06300
C1446       C  0.49586269  0.89181848  0.15322908    -0.17400
C1447       C  0.48128862  0.90136901  0.17029024     0.10900
C1448       C  0.45353314  0.88013675  0.18221830    -0.06200
C1449       C  0.44027701  0.85010401  0.17596311    -0.17400
C1450       C  0.45480056  0.84044976  0.15907656     0.11000
S1451       S  0.50005429  0.94067397  0.17664326    -0.32400
S1452       S  0.43615958  0.80075004  0.15418578    -0.32400
H1453       H  0.46340021  0.79927268  0.14965237     0.29000
H1454       H  0.47391172  0.94144630  0.18616444     0.29000
H1455       H  0.01678158  0.90815349  0.14435626     0.19600
H1456       H  0.41887103  0.83384749  0.18502828     0.19600
C1457       C  0.33623295  0.94821020  0.35656953    -0.06300
C1458       C  0.31275127  0.93098118  0.34011375    -0.17400
C1459       C  0.31846328  0.91679009  0.32056814     0.10900
C1460       C  0.34847858  0.92022564  0.31713030    -0.06200
C1461       C  0.37103642  0.93527787  0.33484309    -0.17400
C1462       C  0.36508668  0.94889714  0.35469789     0.11000
S1463       S  0.28697025  0.89577652  0.30018345    -0.32400
S1464       S  0.39529357  0.46802702  0.37542349    -0.32400
H1465       H  0.37639847  0.46743404  0.39508123     0.29000
H1466       H  0.29840361  0.87759272  0.29088292     0.29000
H1467       H  0.29028368  0.92981880  0.34183699     0.19600
H1468       H  0.39394312  0.93752814  0.33260740     0.19600
C1469       C  0.36423588  0.94931035  0.19063037    -0.06300
C1470       C  0.33329536  0.94355435  0.19029327    -0.17400
C1471       C  0.32394945  0.95777834  0.17355320     0.10900
C1472       C  0.34536486  0.97674022  0.15559418    -0.06200
C1473       C  0.37581954  0.98143664  0.15533503    -0.17400
C1474       C  0.38595341  0.96941297  0.17329975     0.11000
S1475       S  0.28436551  0.95059902  0.17592191    -0.32400
S1476       S  0.42698642  0.98115880  0.17320885    -0.32400
H1477       H  0.42879440  0.97802982  0.19838563     0.29000
H1478       H  0.29047802  0.97844309  0.16693671     0.29000
H1479       H  0.31637428  0.92813323  0.20339886     0.19600
H1480       H  0.39218208  0.49436650  0.14122281     0.19600
C1481       C  0.41433182  0.55352990  0.31564114    -0.06300
C1482       C  0.40847467  0.56639941  0.33604270    -0.17400
C1483       C  0.38926252  0.54858569  0.35529024     0.10900
C1484       C  0.36797829  0.51769115  0.35124986    -0.06200
C1485       C  0.37234610  0.00645082  0.32950156    -0.17400
C1486       C  0.39803974  0.52231670  0.31397356     0.11000
S1487       S  0.39601752  0.56551682  0.38507045    -0.32400
S1488       S  0.41005964  0.00320641  0.29350375    -0.32400
H1489       H  0.44139469  0.02559843  0.29102292     0.29000
H1490       H  0.42247246  0.59277556  0.37866469     0.29000
H1491       H  0.42085470  0.59037663  0.33776861     0.19600
H1492       H  0.35648281  0.98431594  0.32376139     0.19600
C1493       C  0.37049960  0.54205588  0.15284523    -0.06300
C1494       C  0.35949067  0.55172437  0.17258726    -0.17400
C1495       C  0.37992228  0.57073237  0.19004565     0.10900
C1496       C  0.41130540  0.57718964  0.18941124    -0.06200
C1497       C  0.42232401  0.56858551  0.16890448    -0.17400
C1498       C  0.40281206  0.55310356  0.14987741     0.11000
S1499       S  0.36473121  0.58639055  0.21215747    -0.32400
S1500       S  0.42108185  0.54952059  0.12223290    -0.32400
H1501       H  0.39617065  0.54188987  0.10667391     0.29000
H1502       H  0.39366218  0.61082069  0.21808954     0.29000
H1503       H  0.33497930  0.54502981  0.17402903     0.19600
H1504       H  0.44652050  0.57431885  0.16750201     0.19600
C1505       C  0.12302678  0.65709493  0.34229884    -0.06300
C1506       C  0.10117471  0.62693562  0.33918272    -0.17400
C1507       C  0.07843727  0.61804754  0.32152280     0.10900
C1508       C  0.07575297  0.63984434  0.30802466    -0.06200
C1509       C  0.09723726  0.67002310  0.31142268    -0.17400
C1510       C  0.12133381  0.67884800  0.32796036     0.11000
S1511       S  0.05418346  0.57866391  0.31658889    -0.32400
S1512       S  0.15074917  0.71766377  0.32973050    -0.32400
H1513       H  0.13826728  0.72834463  0.31224381     0.29000
H1514       H  0.04987249  0.58099263  0.29169801     0.29000
H1515       H  0.10267650  0.61018148  0.34992330     0.19600
H1516       H  0.09529565  0.68656184  0.30075536     0.19600
C1517       C  0.06260388  0.64316416  0.18081646    -0.06300
C1518       C  0.09357795  0.66640651  0.17841586    -0.17400
C1519       C  0.11340474  0.66607166  0.16000237     0.10900
C1520       C  0.10117720  0.64402211  0.14193162    -0.06200
C1521       C  0.06907052  0.62459148  0.14174642    -0.17400
C1522       C  0.05023356  0.62207236  0.16184087     0.11000
S1523       S  0.15377034  0.69466618  0.16027594    -0.32400
S1524       S  0.01166105  0.59002796  0.16267519    -0.32400
H1525       H  0.01203976  0.58380426  0.18747067     0.29000
H1526       H  0.16580781  0.67749086  0.14989932     0.29000
H1527       H  0.10293978  0.68384526  0.19188034     0.19600
H1528       H  0.05892446  0.60990566  0.12647479     0.19600
C1529       C  0.16017205  0.73883387  0.03608972    -0.06300
C1530       C  0.18418026  0.74224172  0.05140833    -0.17400
C1531       C  0.18121396  0.71900375  0.06621985     0.10900
C1532       C  0.15420564  0.69079774  0.06512903    -0.06200
C1533       C  0.13060302  0.68687990  0.04917991    -0.17400
C1534       C  0.13330438  0.71039198  0.03462267     0.11000
S1535       S  0.21169942  0.72768746  0.08748799    -0.32400
S1536       S  0.10183811  0.70249738  0.01457317    -0.32400
H1537       H  0.12122566  0.72044545  0.99538311     0.29000
H1538       H  0.19183204  0.71091721  0.10688404     0.29000
H1539       H  0.20488510  0.76383789  0.05302328     0.19600
H1540       H  0.10953902  0.66542439  0.04848641     0.19600
C1541       C  0.08364354  0.82273395  0.03680511    -0.06300
C1542       C  0.08589168  0.81379301  0.06042058    -0.17400
C1543       C  0.06862821  0.81636615  0.08015304     0.10900
C1544       C  0.04866055  0.82826548  0.07630335    -0.06200
C1545       C  0.04569206  0.83616319  0.05257490    -0.17400
C1546       C  0.06221827  0.83303259  0.03285397     0.11000
S1547       S  0.07174743  0.80373213  0.10995748    -0.32400
S1548       S  0.05469487  0.84159397  0.00269133    -0.32400
H1549       H  0.03037118  0.84717138  0.00916890     0.29000
H1550       H  0.09521776  0.79681665  0.10387198     0.29000
H1551       H  0.10174285  0.80541767  0.06348715     0.19600
H1552       H  0.03059391  0.84539686  0.04954026     0.19600
C1553       C  0.25040659  0.91701511  0.04947133    -0.06300
C1554       C  0.23709090  0.91922612  0.07159582    -0.17400
C1555       C  0.25396215  0.94265706  0.08761609     0.10900
C1556       C  0.28496446  0.96407219  0.08156459    -0.06200
C1557       C  0.29786920  0.96242138  0.05904620    -0.17400
C1558       C  0.28085354  0.93932766  0.04283648     0.11000
S1559       S  0.23631229  0.94449418  0.11617565    -0.32400
S1560       S  0.30004982  0.93864156  0.01480110    -0.32400
H1561       H  0.28549423  0.90753630  0.01292864     0.29000
H1562       H  0.20790539  0.41789682  0.11409894     0.29000
H1563       H  0.21362028  0.90214039  0.07649716     0.19600
H1564       H  0.32202770  0.97800653  0.05470007     0.19600
C1565       C  0.16514018  0.70742576  0.41993034    -0.06300
C1566       C  0.19126617  0.73466428  0.42612252    -0.17400
C1567       C  0.18868512  0.75423508  0.44251808     0.10900
C1568       C  0.15936360  0.74643346  0.45315193    -0.06200
C1569       C  0.13360012  0.71889259  0.44770259    -0.17400
C1570       C  0.13604770  0.69922904  0.43156665     0.11000
S1571       S  0.22308221  0.78953318  0.44777475    -0.32400
S1572       S  0.10058619  0.66456773  0.42651775    -0.32400
H1573       H  0.11435761  0.64825040  0.41768783     0.29000
H1574       H  0.20779018  0.80632496  0.44919089     0.29000
H1575       H  0.21349820  0.74158085  0.41705344     0.19600
H1576       H  0.11103625  0.71286129  0.45580165     0.19600
C1577       C  0.02908208  0.84051320  0.43445009    -0.06300
C1578       C  0.04040044  0.82105127  0.42915621    -0.17400
C1579       C  0.06381668  0.82088038  0.44273183     0.10900
C1580       C  0.07692651  0.84084959  0.46228392    -0.06200
C1581       C  0.06604174  0.86072805  0.46756342    -0.17400
C1582       C  0.04229268  0.86075297  0.45387224     0.11000
S1583       S  0.07734549  0.79577776  0.43308316    -0.32400
S1584       S  0.03050522  0.88767527  0.46154860    -0.32400
H1585       H  0.00055943  0.87156368  0.45198953     0.29000
H1586       H  0.10898253  0.81634305  0.43664804     0.29000
H1587       H  0.03221890  0.80700686  0.41327685     0.19600
H1588       H  0.07564985  0.87589798  0.48264711     0.19600
C1589       C  0.23771951  0.91157120  0.46658816    -0.06300
C1590       C  0.26813129  0.91571758  0.46480657    -0.17400
C1591       C  0.29015094  0.93509486  0.44775357     0.10900
C1592       C  0.28209114  0.95134905  0.43168720    -0.06200
C1593       C  0.25211597  0.94797571  0.43364174    -0.17400
C1594       C  0.22983898  0.92814269  0.45055194     0.11000
S1595       S  0.32788387  0.93734518  0.44765333    -0.32400
S1596       S  0.19197106  0.92512908  0.45046643    -0.32400
H1597       H  0.17682395  0.89461341  0.44486570     0.29000
H1598       H  0.34449593  0.96306716  0.43340856     0.29000
H1599       H  0.27506678  0.90357664  0.47681158     0.19600
H1600       H  0.24553186  0.95993490  0.42112562     0.19600
C1601       C  0.02460732  0.70655551  0.92163107    -0.06300
C1602       C  0.03952919  0.73608160  0.91344555    -0.17400
C1603       C  0.06330924  0.75881933  0.92651873     0.10900
C1604       C  0.07211221  0.75241778  0.94911580    -0.06200
C1605       C  0.05716752  0.72276210  0.95742945    -0.17400
C1606       C  0.03387232  0.69973381  0.94374854     0.11000
S1607       S  0.08252015  0.79525878  0.91242371    -0.32400
S1608       S  0.51672350  0.66265242  0.95620657    -0.32400
H1609       H  0.51230574  0.64861471  0.93358895     0.29000
H1610       H  0.11262822  0.80228870  0.91937960     0.29000
H1611       H  0.03323317  0.74133866  0.89614381     0.19600
H1612       H  0.06367445  0.71749744  0.97460947     0.19600
C1613       C  0.19085190  0.97417406  0.92066596    -0.06300
C1614       C  0.17362823  0.96758137  0.94253377    -0.17400
C1615       C  0.17257837  0.94643976  0.95889991     0.10900
C1616       C  0.18860412  0.93080870  0.95308066    -0.06200
C1617       C  0.20779565  0.93899418  0.93213913    -0.17400
C1618       C  0.20894541  0.96034030  0.91582764     0.11000
S1619       S  0.14879952  0.93814993  0.98633499    -0.32400
S1620       S  0.23305940  0.46786239  0.88840013    -0.32400
H1621       H  0.23633940  0.49584105  0.88351237     0.29000
H1622       H  0.14208206  0.96149512  0.98417244     0.29000
H1623       H  0.15851526  0.97685315  0.94574459     0.19600
H1624       H  0.21990536  0.92695370  0.92739716     0.19600
C1625       C  0.28073424  0.80775157  0.58622920    -0.06300
C1626       C  0.29076005  0.81849734  0.56242237    -0.17400
C1627       C  0.27011223  0.81833087  0.54530968     0.10900
C1628       C  0.23868591  0.80811686  0.55207314    -0.06200
C1629       C  0.22798638  0.79523423  0.57515927    -0.17400
C1630       C  0.24848854  0.79473558  0.59223033     0.11000
S1631       S  0.28545307  0.83258150  0.51527105    -0.32400
S1632       S  0.23182718  0.77800452  0.62146151    -0.32400
H1633       H  0.25597881  0.77322838  0.62890878     0.29000
H1634       H  0.25693983  0.81622033  0.50344981     0.29000
H1635       H  0.31518733  0.82833208  0.55734142     0.19600
H1636       H  0.20388923  0.78724258  0.58051484     0.19600
C1637       C  0.26428257  0.84921830  0.96630717    -0.06300
C1638       C  0.29543106  0.86263213  0.97375083    -0.17400
C1639       C  0.31929691  0.86415850  0.95833702     0.10900
C1640       C  0.31200858  0.85081062  0.93521141    -0.06200
C1641       C  0.28085732  0.83704717  0.92789606    -0.17400
C1642       C  0.25708027  0.83600842  0.94308655     0.11000
S1643       S  0.35861865  0.88406584  0.96897530    -0.32400
S1644       S  0.21790023  0.81676620  0.93202233    -0.32400
H1645       H  0.20361404  0.80408220  0.95456839     0.29000
H1646       H  0.37263135  0.89616541  0.94626037     0.29000
H1647       H  0.30140501  0.87278762  0.99150592     0.19600
H1648       H  0.27501937  0.82707642  0.91006017     0.19600
C1649       C  0.18334495  0.97935385  0.57575591    -0.06300
C1650       C  0.19851491  0.96466090  0.58458037    -0.17400
C1651       C  0.19621773  0.93956942  0.57323555     0.10900
C1652       C  0.17939569  0.92904950  0.55145440    -0.06200
C1653       C  0.16508018  0.94442269  0.54194148    -0.17400
C1654       C  0.16656655  0.96922729  0.55398384     0.11000
S1655       S  0.21283628  0.92047469  0.58921810    -0.32400
S1656       S  0.14568343  0.98604711  0.54095758    -0.32400
H1657       H  0.15241838  0.00818813  0.55830366     0.29000
H1658       H  0.18757712  0.89184267  0.58514561     0.29000
H1659       H  0.20997671  0.97119948  0.60190399     0.19600
H1660       H  0.15243077  0.93692727  0.52519165     0.19600
C1661       C  0.03840348  0.69630285  0.56881550    -0.06300
C1662       C  0.03850071  0.68985903  0.54405575    -0.17400
C1663       C  0.06000885  0.71111724  0.52747557     0.10900
C1664       C  0.08214910  0.73982611  0.53574446    -0.06200
C1665       C  0.08171708  0.74638574  0.56041066    -0.17400
C1666       C  0.06007489  0.72533285  0.57688600     0.11000
S1667       S  0.06054654  0.70020710  0.49628731    -0.32400
S1668       S  0.06181286  0.73740740  0.60795382    -0.32400
H1669       H  0.03138357  0.71618671  0.61515496     0.29000
H1670       H  0.03365905  0.67200703  0.49792797     0.29000
H1671       H  0.02271263  0.66754223  0.53793648     0.19600
H1672       H  0.09813998  0.76836528  0.56689700     0.19600
C1673       C  0.42949800  0.86095909  0.81216228    -0.06300
C1674       C  0.43657764  0.85354815  0.83479138    -0.17400
C1675       C  0.41945109  0.85165942  0.85596346     0.10900
C1676       C  0.39215341  0.85415034  0.85453130    -0.06200
C1677       C  0.38275340  0.85744308  0.83128015    -0.17400
C1678       C  0.40214467  0.86321939  0.81062924     0.11000
S1679       S  0.43612336  0.84934508  0.88411866    -0.32400
S1680       S  0.39213597  0.87645171  0.78390641    -0.32400
H1681       H  0.42300769  0.89625448  0.77643021     0.29000
H1682       H  0.42981438  0.86964676  0.89647307     0.29000
H1683       H  0.45730198  0.85154851  0.83632564     0.19600
H1684       H  0.36152388  0.85848383  0.82952553     0.19600
C1685       C  0.09058960  0.93119588  0.80842059    -0.06300
C1686       C  0.08417378  0.92067883  0.83258352    -0.17400
C1687       C  0.10332784  0.93725031  0.85159573     0.10900
C1688       C  0.13133009  0.96393470  0.84638483    -0.06200
C1689       C  0.13938265  0.97298884  0.82208986    -0.17400
C1690       C  0.11899880  0.95794044  0.80327699     0.11000
S1691       S  0.08938778  0.92419631  0.88211732    -0.32400
S1692       S  0.13065721  0.97573210  0.77382492    -0.32400
H1693       H  0.10034379  0.96644641  0.76600889     0.29000
H1694       H  0.10010248  0.95263156  0.89206563     0.29000
H1695       H  0.06279158  0.90026687  0.83691770     0.19600
H1696       H  0.16114757  0.49307147  0.81777883     0.19600
C1697       C  0.13115078  0.97550662  0.65289810    -0.06300
C1698       C  0.13622163  0.95215274  0.66030374    -0.17400
C1699       C  0.11525358  0.92933417  0.67593947     0.10900
C1700       C  0.09090926  0.93192986  0.68745944    -0.06200
C1701       C  0.08717990  0.95638823  0.68143716    -0.17400
C1702       C  0.10489398  0.97625144  0.66280479     0.11000
S1703       S  0.11943767  0.89666087  0.67822454    -0.32400
S1704       S  0.08856645  0.99720850  0.64981527    -0.32400
H1705       H  0.09987217  0.99765734  0.62608760     0.29000
H1706       H  0.08878249  0.87681830  0.68607590     0.29000
H1707       H  0.15545639  0.95037532  0.65228609     0.19600
H1708       H  0.06779925  0.95796870  0.68942386     0.19600
C1709       C  0.42829530  0.84845917  0.68653675    -0.06300
C1710       C  0.42542506  0.87215814  0.67700898    -0.17400
C1711       C  0.40331469  0.86738484  0.65955993     0.10900
C1712       C  0.38112066  0.83789348  0.65348608    -0.06200
C1713       C  0.38474053  0.81430933  0.66245258    -0.17400
C1714       C  0.40859294  0.81935528  0.67823062     0.11000
S1715       S  0.40579706  0.89979117  0.64513010    -0.32400
S1716       S  0.41225392  0.78770613  0.68723286    -0.32400
H1717       H  0.44395006  0.80360086  0.69293855     0.29000
H1718       H  0.39057296  0.88544930  0.62379929     0.29000
H1719       H  0.44138263  0.89471797  0.68260075     0.19600
H1720       H  0.36855977  0.79163552  0.65728110     0.19600
C1721       C  0.03476205  0.62637525  0.81042177    -0.06300
C1722       C  0.00231008  0.61056685  0.81429250    -0.17400
C1723       C  0.98352919  0.62088671  0.82817441     0.10900
C1724       C  0.00563633  0.64661857  0.84396318    -0.06200
C1725       C  0.03781135  0.66292325  0.83849425    -0.17400
C1726       C  0.05216031  0.65382795  0.82150075     0.11000
S1727       S  0.40647517  0.59579024  0.82227314    -0.32400
S1728       S  0.09345036  0.67781198  0.81588424    -0.32400
H1729       H  0.09404839  0.66937882  0.79168199     0.29000
H1730       H  0.39801067  0.61580604  0.83321263     0.29000
H1731       H  0.99255266  0.59034692  0.80443409     0.19600
H1732       H  0.05240728  0.68395213  0.84720352     0.19600
C1733       C  0.12192807  0.55180105  0.81793954    -0.06300
C1734       C  0.15416420  0.56469175  0.82033787    -0.17400
C1735       C  0.16686526  0.55274747  0.83618062     0.10900
C1736       C  0.14694305  0.52750856  0.85056868    -0.06200
C1737       C  0.11447461  0.51507302  0.84865648    -0.17400
C1738       C  0.10177975  0.52683628  0.83230287     0.11000
S1739       S  0.20870709  0.57003643  0.83623403    -0.32400
S1740       S  0.06011613  0.50960106  0.82928520    -0.32400
H1741       H  0.05209967  0.48718251  0.84689895     0.29000
H1742       H  0.20912067  0.54313529  0.83820211     0.29000
H1743       H  0.16962034  0.58381191  0.80917725     0.19600
H1744       H  0.09915724  0.49592508  0.85979031     0.19600
C1745       C  0.16495751  0.54443474  0.65439590    -0.06300
C1746       C  0.17646869  0.54522252  0.67757718    -0.17400
C1747       C  0.17120261  0.56041224  0.69668823     0.10900
C1748       C  0.15079133  0.57210671  0.69344228    -0.06200
C1749       C  0.14053773  0.57214458  0.66972990    -0.17400
C1750       C  0.14932126  0.56046624  0.65004004     0.11000
S1751       S  0.19277541  0.56550722  0.72398470    -0.32400
S1752       S  0.13855982  0.06430614  0.61951657    -0.32400
H1753       H  0.12779006  0.08420087  0.62544246     0.29000
H1754       H  0.19373690  0.59224343  0.73059426     0.20600
H1755       H  0.19050097  0.53478952  0.68056197     0.19600
H1756       H  0.12506608  0.58088950  0.66652122     0.19600
C1757       C  0.06681321  0.63982520  0.68624367    -0.06300
C1758       C  0.07100365  0.62927587  0.66362120    -0.17400
C1759       C  0.05842238  0.63319273  0.64236622     0.10900
C1760       C  0.03711877  0.64395236  0.64405102    -0.06200
C1761       C  0.03408251  0.65597317  0.66613551    -0.17400
C1762       C  0.05028634  0.65581997  0.68668939     0.11000
S1763       S  0.07045434  0.62337801  0.61414410    -0.32400
S1764       S  0.05023934  0.67786179  0.71217379    -0.32400
H1765       H  0.07888426  0.68301418  0.72120568     0.29000
H1766       H  0.04666185  0.62111165  0.59935749     0.29000
H1767       H  0.08383310  0.61736517  0.66229652     0.19600
H1768       H  0.01986921  0.66656715  0.66708559     0.19600
C1769       C  0.44476167  0.58553212  0.80206939    -0.06300
C1770       C  0.43925719  0.57364700  0.83145457    -0.17400
C1771       C  0.44067512  0.59543199  0.85431747     0.10900
C1772       C  0.44792117  0.63046352  0.84874688    -0.06200
C1773       C  0.45505937  0.64393030  0.81962997    -0.17400
C1774       C  0.45406077  0.62187721  0.79632754     0.11000
S1775       S  0.43685891  0.58107623  0.88452408    -0.32400
S1776       S  0.46859705  0.64122493  0.76769920    -0.32400
H1777       H  0.47029831  0.61873467  0.75503546     0.29000
H1778       H  0.46416797  0.60590299  0.89248232     0.29000
H1779       H  0.43154657  0.55082052  0.83619208     0.19600
H1780       H  0.46368933  0.66738087  0.81635628     0.19600
C1781       C  0.37473007  0.90254844  0.86119256    -0.06300
C1782       C  0.35140342  0.90734124  0.85157807    -0.17400
C1783       C  0.35775444  0.92671317  0.83190241     0.10900
C1784       C  0.38680500  0.93861231  0.81939327    -0.06200
C1785       C  0.41021586  0.93431231  0.82931646    -0.17400
C1786       C  0.40537507  0.91927139  0.85140151     0.11000
S1787       S  0.32764806  0.93481006  0.82333633    -0.32400
S1788       S  0.43923763  0.92298076  0.86628394    -0.32400
H1789       H  0.42520318  0.91530935  0.88958373     0.29000
H1790       H  0.34799800  0.96349637  0.81408999     0.29000
H1791       H  0.32796302  0.89576552  0.85923643     0.19600
H1792       H  0.43267170  0.94319662  0.82011756     0.19600
C1793       C  0.46770694  0.60312560  0.64039998    -0.06300
C1794       C  0.44010668  0.60189612  0.64929835    -0.17400
C1795       C  0.42084826  0.58057011  0.66670896     0.10900
C1796       C  0.43178772  0.56336912  0.67851686    -0.06200
C1797       C  0.45983181  0.56544716  0.67014207    -0.17400
C1798       C  0.47538126  0.58213632  0.64951353     0.11000
S1799       S  0.38178552  0.57443932  0.67074918    -0.32400
S1800       S  0.49938053  0.57057963  0.63310491    -0.32400
H1801       H  0.49520637  0.57978798  0.61016730     0.29000
H1802       H  0.36848912  0.54489222  0.67909644     0.29000
H1803       H  0.43255292  0.61650076  0.64167287     0.19600
H1804       H  0.46776587  0.55128443  0.67810058     0.19600
C1805       C  0.35129141  0.90714316  0.69605172    -0.06300
C1806       C  0.35412130  0.88208506  0.70195181    -0.17400
C1807       C  0.34251704  0.85710638  0.68681438     0.10900
C1808       C  0.33325678  0.85900620  0.66296712    -0.06200
C1809       C  0.32870717  0.88321245  0.65768778    -0.17400
C1810       C  0.33547865  0.90590984  0.67451891     0.11000
S1811       S  0.33806857  0.82323750  0.69988487    -0.32400
S1812       S  0.32280446  0.93225005  0.66749461    -0.32400
H1813       H  0.31885546  0.93824594  0.69185835     0.29000
H1814       H  0.31731816  0.80414341  0.68249497     0.29000
H1815       H  0.36493964  0.88155510  0.71869266     0.19600
H1816       H  0.32013550  0.88485965  0.64016067     0.19600
C1817       C  0.42131162  0.65553231  0.53567540    -0.06300
C1818       C  0.43765973  0.67848618  0.55234738    -0.17400
C1819       C  0.46027608  0.67859763  0.56735686     0.10900
C1820       C  0.46749105  0.65547481  0.56556816    -0.06200
C1821       C  0.45129935  0.63246659  0.54880879    -0.17400
C1822       C  0.42852105  0.63233819  0.53376839     0.11000
S1823       S  0.47799313  0.70721563  0.58996789    -0.32400
S1824       S  0.40990284  0.60232789  0.51249435    -0.32400
H1825       H  0.40690947  0.61954310  0.49415017     0.29000
H1826       H  0.46375239  0.72385888  0.58341015     0.29000
H1827       H  0.43198538  0.69614482  0.55407087     0.19600
H1828       H  0.45618028  0.61423473  0.54770332     0.19600
C1829       C  0.31056133  0.56643947  0.44998778    -0.06300
C1830       C  0.32791599  0.55326154  0.45759679    -0.17400
C1831       C  0.32792408  0.52992650  0.44449784     0.10900
C1832       C  0.30901015  0.51826356  0.42392314    -0.06200
C1833       C  0.29066526  0.53045680  0.41693315    -0.17400
C1834       C  0.29171629  0.55463523  0.42913712     0.11000
S1835       S  0.35416593  0.51745527  0.45405179    -0.32400
S1836       S  0.27046429  0.57063728  0.41536553    -0.32400
H1837       H  0.29557008  0.59997836  0.41611852     0.29000
H1838       H  0.36516778  0.01680241  0.43028315     0.29000
H1839       H  0.34241663  0.56182700  0.47337512     0.19600
H1840       H  0.27704848  0.52238367  0.40064776     0.19600
C1841       C  0.21907420  0.54865419  0.57645231    -0.06300
C1842       C  0.21042609  0.56638921  0.56320502    -0.17400
C1843       C  0.23024790  0.58674969  0.54560076     0.10900
C1844       C  0.25970631  0.58922999  0.54014646    -0.06200
C1845       C  0.26879625  0.57205266  0.55395496    -0.17400
C1846       C  0.24911637  0.55223349  0.57221389     0.11000
S1847       S  0.21647396  0.60944120  0.53152968    -0.32400
S1848       S  0.26417410  0.53281295  0.58952520    -0.32400
H1849       H  0.24583360  0.52842120  0.61060207     0.29000
H1850       H  0.24569748  0.63558177  0.53129736     0.29000
H1851       H  0.18802307  0.56478752  0.56702784     0.19600
H1852       H  0.29125702  0.57375246  0.55031726     0.19600
C1853       C  0.41254980  0.75360363  0.45833663    -0.06300
C1854       C  0.40756502  0.77719198  0.45223689    -0.17400
C1855       C  0.42948125  0.80143947  0.43816213     0.10900
C1856       C  0.45712952  0.80219884  0.42938934    -0.06200
C1857       C  0.46156308  0.77808601  0.43503102    -0.17400
C1858       C  0.43982956  0.75407640  0.44942214     0.11000
S1859       S  0.42065828  0.83076830  0.43217374    -0.32400
S1860       S  0.44765622  0.72409629  0.45507734    -0.32400
H1861       H  0.41627649  0.70156894  0.45688911     0.29000
H1862       H  0.45171356  0.85394715  0.43067132     0.29000
H1863       H  0.38695031  0.77728181  0.45926824     0.19600
H1864       H  0.48136248  0.77715822  0.42740210     0.19600
C1865       C  0.21211964  0.68570028  0.41816296    -0.06300
C1866       C  0.24429137  0.70411732  0.41430413    -0.17400
C1867       C  0.26573900  0.70477090  0.43088655     0.10900
C1868       C  0.25485678  0.68612103  0.45173952    -0.06200
C1869       C  0.22258413  0.66951191  0.45640763    -0.17400
C1870       C  0.20122835  0.66877384  0.43984385     0.11000
S1871       S  0.30642776  0.72757068  0.42307530    -0.32400
S1872       S  0.16063230  0.64374300  0.44667583    -0.32400
H1873       H  0.15292305  0.63329225  0.42284870     0.29000
H1874       H  0.31353981  0.74251431  0.44544339     0.29000
H1875       H  0.25277825  0.71719148  0.39771195     0.19600
H1876       H  0.21377251  0.65532644  0.47240479     0.19600
C1877       C  0.34150280  0.75466948  0.54402724    -0.06300
C1878       C  0.31225669  0.74277459  0.55575843    -0.17400
C1879       C  0.30641570  0.75888627  0.57358920     0.10900
C1880       C  0.32969782  0.78830532  0.57882766    -0.06200
C1881       C  0.35795945  0.80095480  0.56533764    -0.17400
C1882       C  0.36425401  0.78436472  0.54835166     0.11000
S1883       S  0.27043840  0.73931648  0.59077561    -0.32400
S1884       S  0.40207734  0.80183845  0.53344605    -0.32400
H1885       H  0.39209330  0.78554911  0.51180604     0.29000
H1886       H  0.28438911  0.74959855  0.61338405     0.29000
H1887       H  0.29478185  0.71983527  0.55254172     0.19600
H1888       H  0.37597011  0.82353876  0.56904297     0.19600
C1889       C  0.25059366  0.58664070  0.95307773    -0.06300
C1890       C  0.26222170  0.58558485  0.92986228    -0.17400
C1891       C  0.24448110  0.56287711  0.91358869     0.10900
C1892       C  0.21387960  0.54075746  0.92050411    -0.06200
C1893       C  0.20255763  0.54155534  0.94393851    -0.17400
C1894       C  0.22092484  0.56356246  0.96052554     0.11000
S1895       S  0.26222191  0.56489868  0.88406299    -0.32400
S1896       S  0.20416303  0.56243046  0.99009857    -0.32400
H1897       H  0.23016606  0.56586435  0.00268419     0.29000
H1898       H  0.23791258  0.53980155  0.87337979     0.29000
H1899       H  0.28510074  0.60317933  0.92409290     0.19600
H1900       H  0.17875895  0.52575595  0.94909193     0.19600
C1901       C  0.18892805  0.65491833  0.06625877    -0.06300
C1902       C  0.18253325  0.64843173  0.04165395    -0.17400
C1903       C  0.20447626  0.64748213  0.02560098     0.10900
C1904       C  0.23420790  0.65397161  0.03404888    -0.06200
C1905       C  0.24076595  0.66123768  0.05861256    -0.17400
C1906       C  0.21859541  0.66174889  0.07472657     0.11000
S1907       S  0.19199515  0.63600316  0.99497744    -0.32400
S1908       S  0.22865411  0.67170513  0.10609950    -0.32400
H1909       H  0.25773242  0.67295704  0.10501184     0.29000
H1910       H  0.20653862  0.61867351  0.99265573     0.29000
H1911       H  0.15965232  0.64252770  0.03515400     0.19600
H1912       H  0.26355445  0.66695737  0.06513299     0.19600
C1913       C  0.41610078  0.68236173  0.96575523    -0.06300
C1914       C  0.41307925  0.65466563  0.95973957    -0.17400
C1915       C  0.43173596  0.65185801  0.94174446     0.10900
C1916       C  0.45382106  0.67715267  0.92841396    -0.06200
C1917       C  0.45711070  0.70505751  0.93429724    -0.17400
C1918       C  0.43893954  0.70800056  0.95307407     0.11000
S1919       S  0.42579553  0.61498640  0.93670655    -0.32400
S1920       S  0.44677583  0.74499837  0.96051358    -0.32400
H1921       H  0.44377841  0.74016564  0.98580586     0.29000
H1922       H  0.45681964  0.62437390  0.93002138     0.29000
H1923       H  0.39595909  0.63475895  0.96930387     0.19600
H1924       H  0.47376057  0.72461135  0.92413302     0.19600
C1925       C  0.31168127  0.57469959  0.04914216    -0.06300
C1926       C  0.29180029  0.56559752  0.06973096    -0.17400
C1927       C  0.29034510  0.54368541  0.08552747     0.10900
C1928       C  0.30907752  0.53057315  0.08056169    -0.06200
C1929       C  0.32687768  0.53796705  0.05898407    -0.17400
C1930       C  0.32780972  0.55930277  0.04295405     0.11000
S1931       S  0.26719341  0.03700755  0.11394048    -0.32400
S1932       S  0.35110418  0.56776919  0.01526688    -0.32400
H1933       H  0.35622504  0.54334086  0.01639487     0.29000
H1934       H  0.26461047  0.00933189  0.11917942     0.29000
H1935       H  0.27929728  0.57722870  0.07459600     0.19600
H1936       H  0.34217128  0.52889547  0.05564433     0.19600
C1937       C  0.43129424  0.75584206  0.04938930    -0.06300
C1938       C  0.44795456  0.74953271  0.06669756    -0.17400
C1939       C  0.47108045  0.77173167  0.08060731     0.10900
C1940       C  0.47880104  0.80160817  0.07715413    -0.06200
C1941       C  0.46311488  0.80839508  0.05944930    -0.17400
C1942       C  0.43996575  0.78605192  0.04526536     0.11000
S1943       S  0.48831176  0.75990102  0.10352667    -0.32400
S1944       S  0.42297698  0.79781755  0.02220688    -0.32400
H1945       H  0.42476784  0.77929227  0.00420255     0.29000
H1946       H  0.99033216  0.78042751  0.12164634     0.29000
H1947       H  0.44214548  0.72677173  0.07037164     0.19600
H1948       H  0.46885548  0.83132718  0.05679321     0.19600
C1949       C  0.33657552  0.76343365  0.96424103    -0.06300
C1950       C  0.36534588  0.78987377  0.96256525    -0.17400
C1951       C  0.36920138  0.81418734  0.94860694     0.10900
C1952       C  0.34379918  0.81230901  0.93567079    -0.06200
C1953       C  0.31474282  0.78663779  0.93818971    -0.17400
C1954       C  0.31066375  0.76222211  0.95218481     0.11000
S1955       S  0.40760710  0.84653319  0.94746765    -0.32400
S1956       S  0.27254938  0.72914208  0.95246516    -0.32400
H1957       H  0.25694440  0.74066715  0.93905040     0.29000
H1958       H  0.39907847  0.86685680  0.93866555     0.29000
H1959       H  0.38521986  0.79150998  0.97188520     0.19600
H1960       H  0.29559815  0.78511518  0.92789135     0.19600
O1961       O  0.84882836  0.12054460  0.03329634    -0.81000
O1962       O  0.85803524  0.23503366  0.98317369    -0.65700
O1963       O  0.84256178  0.17132737  0.02753485    -1.12300
C1964       C  0.76824950  0.11373774  0.96781210     1.05900
O1965       O  0.80750554  0.21647359  0.98436529    -0.78900
O1966       O  0.75978534  0.16317526  0.99573001    -0.66500
Ni1967     Ni  0.87469891  0.16313719  0.03569247     1.34900
C1968       C  0.75916640  0.15547447  0.01760503     0.84600
O1969       O  0.88427834  0.23269598  0.02595091    -0.79500
O1970       O  0.90382665  0.20470316  0.03971798    -0.89700
C1971       C  0.83415331  0.23726486  0.97793908     0.84200
O1972       O  0.88923064  0.16384038  0.00338408    -0.67900
O1973       O  0.77451233  0.13838154  0.95770151    -0.87200
C1974       C  0.89564003  0.18257885  0.98635501     0.85000
C1975       C  0.90493212  0.22976848  0.03732676     1.06600
H1976       H  0.83276438  0.16806397  0.97306238     0.38400
O1977       O  0.82220321  0.17234352  0.98606913    -1.09900
O1978       O  0.77960469  0.14972821  0.02588913    -0.66500
Ni1979     Ni  0.80942927  0.14126525  0.00914917     1.26300
O1980       O  0.88538453  0.20093530  0.98636328    -0.66800
O1981       O  0.77733266  0.11178959  0.98898520    -0.79100
C1982       C  0.82000837  0.10343683  0.03802417     0.84400
O1983       O  0.79984073  0.11093602  0.03304357    -0.66200
Ni1984     Ni  0.79145191  0.17755408  0.97098495     1.27400
Ni1985     Ni  0.85292845  0.20359704  0.00534020     1.26100
H1986       H  0.83425470  0.17489047  0.04241750     0.38900
O1987       O  0.90612018  0.18407899  0.51251241    -0.81000
O1988       O  0.80348889  0.19758690  0.46992819    -0.65700
O1989       O  0.84783987  0.17696947  0.51443291    -1.12300
C1990       C  0.81221054  0.09212040  0.46393835     1.05900
O1991       O  0.76336579  0.15334722  0.47636958    -0.78900
O1992       O  0.76568143  0.11055787  0.50147213    -0.66500
Ni1993     Ni  0.88751565  0.20624643  0.52513205     1.34900
C1994       C  0.77970629  0.10708693  0.51901888     0.84600
O1995       O  0.83212196  0.22195381  0.51173815    -0.79500
O1996       O  0.86987528  0.22951045  0.53794377    -0.89700
C1997       C  0.77506188  0.17901017  0.46675761     0.84200
O1998       O  0.90310846  0.23133735  0.49713459    -0.67900
O1999       O  0.78891741  0.09609454  0.46189143    -0.87200
C2000       C  0.89143286  0.23134638  0.47691021     0.85000
C2001       C  0.84852771  0.23441653  0.53028623     1.06600
H2002       H  0.83109801  0.15991339  0.45979847     0.38400
O2003       O  0.82021881  0.15402268  0.47534402    -1.09900
O2004       O  0.80911403  0.11710204  0.51850547    -0.66500
Ni2005     Ni  0.84332071  0.14306688  0.49635311     1.26300
O2006       O  0.86282638  0.21406823  0.47228804    -0.66800
O2007       O  0.83602678  0.10896491  0.47674775    -0.79100
C2008       C  0.89837540  0.15845532  0.52081221     0.84400
O2009       O  0.87093637  0.13684685  0.51721196    -0.66200
Ni2010     Ni  0.77788324  0.12575145  0.46946973     1.27400
Ni2011     Ni  0.82660010  0.18866986  0.49259211     1.26100
H2012       H  0.83489033  0.16975557  0.52897799     0.38900
N2013       N  0.89047846  0.98908752  0.71134908    -0.36700
N2014       N  0.92420812  0.04424920  0.74131164    -0.57300
N2015       N  0.91376867  0.00672265  0.78185035    -0.36700
N2016       N  0.88229025  0.45309215  0.75301577    -0.57300
C2017       C  0.90638821  0.01105474  0.69482374     0.26800
C2018       C  0.88407896  0.46330960  0.70137221     0.26800
C2019       C  0.93602298  0.03399968  0.78919875     0.26800
C2020       C  0.91500139  0.48633424  0.79573998     0.26800
C2021       C  0.91436807  0.05233260  0.72163294     0.35500
C2022       C  0.92398608  0.06124815  0.75999440     0.35500
C2023       C  0.86300135  0.43168331  0.73769301     0.35500
C2024       C  0.87502672  0.44122779  0.77560864     0.35500
C2025       C  0.91071715  0.99874521  0.67360123    -0.22000
C2026       C  0.89684009  0.46895156  0.67804170    -0.22000
C2027       C  0.95393566  0.03026887  0.80647416    -0.22000
C2028       C  0.93973908  0.50054522  0.81126378    -0.22000
C2029       C  0.90760349  0.07456836  0.72782080    -0.23100
C2030       C  0.91193898  0.07890073  0.75248370    -0.23100
C2031       C  0.84297217  0.40613990  0.75067374    -0.23100
C2032       C  0.85090073  0.41202935  0.77465174    -0.23100
C2033       C  0.91492634  0.04141282  0.69821678    -0.18400
C2034       C  0.86588213  0.43465605  0.71208424    -0.18400
C2035       C  0.89236580  0.45575312  0.79635949    -0.18400
C2036       C  0.93620368  0.06085595  0.78291339    -0.18400
H2037       H  0.92140374  0.00993642  0.65661182     0.14500
H2038       H  0.89626924  0.45295534  0.66504505     0.14500
H2039       H  0.97285513  0.04665644  0.81687134     0.14500
H2040       H  0.94723438  0.49116517  0.82528355     0.14500
H2041       H  0.89971897  0.08617349  0.71632123     0.12800
H2042       H  0.90719231  0.09368447  0.76337470     0.12800
H2043       H  0.82504079  0.38519585  0.74364321     0.12800
H2044       H  0.84058266  0.39620587  0.78946745     0.12800
H2045       H  0.88133080  0.99150090  0.72789925     0.26000
H2046       H  0.89483344  0.00240914  0.77113967     0.26000
N2047       N  0.60815983  0.10805080  0.71956562    -0.36700
N2048       N  0.62340441  0.07983475  0.75688817    -0.57300
N2049       N  0.58284508  0.09095170  0.79056859    -0.36700
N2050       N  0.57132106  0.12321476  0.75263731    -0.57300
C2051       C  0.63329360  0.10734547  0.71021809     0.26800
C2052       C  0.60586620  0.12981864  0.70797523     0.26800
C2053       C  0.59819054  0.08276312  0.80589679     0.26800
C2054       C  0.57095990  0.10528249  0.80366710     0.26800
C2055       C  0.62844015  0.06771587  0.73664521     0.35500
C2056       C  0.61534723  0.05946209  0.77478890     0.35500
C2057       C  0.55977955  0.12272379  0.73048970     0.35500
C2058       C  0.54750709  0.11509560  0.76882285     0.35500
C2059       C  0.64826835  0.13008075  0.69320158    -0.22000
C2060       C  0.63092164  0.14437638  0.69182534    -0.22000
C2061       C  0.59618943  0.09197066  0.82922079    -0.22000
C2062       C  0.57876639  0.10614072  0.82783661    -0.22000
C2063       C  0.62273646  0.03916181  0.74168133    -0.23100
C2064       C  0.61496756  0.03430715  0.76608368    -0.23100
C2065       C  0.52823255  0.11323237  0.73254968    -0.23100
C2066       C  0.52066323  0.10874586  0.75695866    -0.23100
C2067       C  0.63886729  0.08331339  0.71423555    -0.18400
C2068       C  0.57848566  0.13216915  0.70899838    -0.18400
C2069       C  0.55080104  0.11457112  0.79416217    -0.18400
C2070       C  0.61073307  0.06446744  0.79926984    -0.18400
H2071       H  0.66845812  0.13472535  0.68199630     0.14500
H2072       H  0.63512092  0.16214210  0.67931166     0.14500
H2073       H  0.60524642  0.08788157  0.84560930     0.14500
H2074       H  0.57177992  0.11505127  0.84299819     0.14500
H2075       H  0.62379448  0.02346661  0.72918823     0.12800
H2076       H  0.60834455  0.01435577  0.77640530     0.12800
H2077       H  0.51228922  0.10954519  0.71805567     0.12800
H2078       H  0.49773227  0.09974839  0.76486996     0.12800
H2079       H  0.59040879  0.09123428  0.73010072     0.26000
H2080       H  0.57785206  0.08414480  0.77260785     0.26000
N2081       N  0.50866124  0.38864827  0.78432767    -0.36700
N2082       N  0.55595375  0.40344440  0.74741737    -0.57300
N2083       N  0.50912107  0.37822054  0.71042709    -0.36700
N2084       N  0.96114666  0.36411750  0.74806244    -0.57300
C2085       C  0.53470908  0.40950625  0.79526680     0.26800
C2086       C  0.98403571  0.38840899  0.79565228     0.26800
C2087       C  0.53491621  0.39488333  0.69638717     0.26800
C2088       C  0.98414913  0.37139006  0.69661790     0.26800
C2089       C  0.57286553  0.40711823  0.76734841     0.35500
C2090       C  0.57423571  0.40620702  0.72798225     0.35500
C2091       C  0.94301272  0.35409770  0.76843131     0.35500
C2092       C  0.94311350  0.34888923  0.72928904     0.35500
C2093       C  0.52645884  0.42317558  0.81339060    -0.22000
C2094       C  0.99452488  0.40962822  0.81378390    -0.22000
C2095       C  0.52600625  0.39669282  0.67300531    -0.22000
C2096       C  0.99411534  0.38193790  0.67311590    -0.22000
C2097       C  0.60137529  0.40995891  0.76065287    -0.23100
C2098       C  0.60290566  0.41106939  0.73566427    -0.23100
C2099       C  0.91346159  0.33173183  0.76267748    -0.23100
C2100       C  0.91325211  0.32902834  0.73780293    -0.23100
C2101       C  0.56544445  0.41509355  0.79006590    -0.18400
C2102       C  0.95230880  0.36772228  0.79138789    -0.18400
C2103       C  0.95251636  0.35536840  0.70456629    -0.18400
C2104       C  0.56635152  0.40873722  0.70396728    -0.18400
H2105       H  0.54183764  0.44069808  0.82536121     0.14500
H2106       H  0.98054097  0.41482967  0.82607731     0.14500
H2107       H  0.54094824  0.40763451  0.65734895     0.14500
H2108       H  0.97998261  0.37926621  0.65755763     0.14500
H2109       H  0.62042556  0.41432364  0.77241308     0.12800
H2110       H  0.62337230  0.41617382  0.72480646     0.12800
H2111       H  0.89370104  0.31964425  0.77493485     0.12800
H2112       H  0.89318890  0.31442897  0.72729894     0.12800
H2113       H  0.50749236  0.37286768  0.77191632     0.26000
H2114       H  0.50842982  0.37094377  0.72810310     0.26000
C2115       C  0.98741228  0.15219785  0.58411292     0.02100
C2116       C  0.51959928  0.17155342  0.58641792     0.02100
C2117       C  0.53523625  0.16674250  0.60541203    -0.18400
C2118       C  0.51934017  0.14483096  0.62325821     0.02100
C2119       C  0.98717616  0.12572675  0.62115447     0.02100
C2120       C  0.97182211  0.12927537  0.60133287    -0.18400
H2121       H  0.94695032  0.11457839  0.59972194     0.04200
H2122       H  0.56023168  0.18086461  0.60676600     0.04200
C2123       C  0.67811427  0.49773972  0.59404433     0.02100
C2124       C  0.69719192  0.02968779  0.59616722     0.02100
C2125       C  0.69206574  0.04371912  0.61630676    -0.18400
C2126       C  0.66969038  0.02745941  0.63462123     0.02100
C2127       C  0.65192928  0.49568033  0.63302621     0.02100
C2128       C  0.65592919  0.48183391  0.61239780    -0.18400
H2129       H  0.64235815  0.45777866  0.61105444     0.04200
H2130       H  0.70557921  0.06775497  0.61768111     0.04200
C2131       C  0.83606847  0.35346575  0.91697461     0.02100
C2132       C  0.84824835  0.33375393  0.91595129     0.02100
C2133       C  0.86572324  0.33414407  0.89526826    -0.18400
C2134       C  0.87452412  0.35570250  0.87673923     0.02100
C2135       C  0.86562801  0.37799159  0.87944676     0.02100
C2136       C  0.84576501  0.37579270  0.89909609    -0.18400
H2137       H  0.83761323  0.39173502  0.90059565     0.04200
H2138       H  0.87231981  0.31710356  0.89360121     0.04200
C2139       C  0.80468469  0.31351708  0.60454911     0.02100
C2140       C  0.82758907  0.30498625  0.60049855     0.02100
C2141       C  0.85114250  0.31307571  0.61737471    -0.18400
C2142       C  0.85364767  0.33016635  0.63783018     0.02100
C2143       C  0.83067686  0.33869119  0.64254683     0.02100
C2144       C  0.80649764  0.32997941  0.62564293    -0.18400
H2145       H  0.78920162  0.33680402  0.62852709     0.04200
H2146       H  0.86861949  0.30647876  0.61414188     0.04200
C2147       C  0.69154739  0.01994047  0.90297174     0.02100
C2148       C  0.68395422  0.48993739  0.90101999     0.02100
C2149       C  0.66489050  0.47244113  0.88215433    -0.18400
C2150       C  0.65241191  0.48396352  0.86542472     0.02100
C2151       C  0.65927844  0.01406331  0.86799143     0.02100
C2152       C  0.67892655  0.03154328  0.88652484    -0.18400
H2153       H  0.68460106  0.05459057  0.88814789     0.04200
H2154       H  0.65892762  0.44929045  0.88092649     0.04200
C2155       C  0.96924968  0.17325864  0.90633739     0.02100
C2156       C  0.50183974  0.18354104  0.90523070     0.02100
C2157       C  0.51418355  0.17503199  0.88527790    -0.18400
C2158       C  0.49517114  0.15833409  0.86582684     0.02100
C2159       C  0.96416208  0.15055712  0.86682534     0.02100
C2160       C  0.95069654  0.15680743  0.88688977    -0.18400
H2161       H  0.92572847  0.14807399  0.88769356     0.04200
H2162       H  0.53855672  0.18135965  0.88548424     0.04200
O2163       O  0.73184281  0.34502815  0.53180024    -0.81000
O2164       O  0.62492242  0.36024228  0.48402706    -0.65700
O2165       O  0.67361489  0.34192267  0.52732367    -1.12300
C2166       C  0.65331513  0.26742856  0.46737073     1.05900
O2167       O  0.59146651  0.31248019  0.48613668    -0.78900
O2168       O  0.59566198  0.26476947  0.49800015    -0.66500
Ni2169     Ni  0.71489316  0.37137010  0.53510940     1.34900
C2170       C  0.60491132  0.26347977  0.51895014     0.84600
O2171       O  0.65424880  0.38490203  0.52669384    -0.79500
O2172       O  0.70262091  0.40091638  0.53988170    -0.89700
C2173       C  0.59854063  0.33819673  0.47868830     0.84200
O2174       O  0.72866142  0.38465453  0.50285388    -0.67900
O2175       O  0.63314474  0.27341367  0.45891348    -0.87200
C2176       C  0.71606168  0.39169751  0.48627215     0.85000
C2177       C  0.67825846  0.40330046  0.53844782     1.06600
H2178       H  0.66505588  0.33137593  0.47254165     0.38400
O2179       O  0.65070142  0.32229203  0.48612303    -1.09900
O2180       O  0.63232005  0.28178298  0.52594805    -0.66500
Ni2181     Ni  0.67038302  0.30932845  0.50834393     1.26300
O2182       O  0.68692797  0.38282933  0.48667480    -0.66800
O2183       O  0.66760801  0.27790715  0.48730985    -0.79100
C2184       C  0.71958519  0.31777105  0.53773786     0.84400
O2185       O  0.69196000  0.29912595  0.53179297    -0.66200
Ni2186     Ni  0.61280674  0.29348665  0.47252751     1.27400
Ni2187     Ni  0.65123395  0.35342483  0.50579679     1.26100
H2188       H  0.66166774  0.33449633  0.54232259     0.38900
O2189       O  0.69158937  0.28646711  0.01824182    -0.81000
O2190       O  0.69990449  0.39460954  0.97019726    -0.65700
O2191       O  0.67761767  0.33190613  0.01630508    -1.12300
C2192       C  0.59536324  0.27609450  0.96455298     1.05900
O2193       O  0.65068339  0.38421478  0.96743588    -0.78900
O2194       O  0.61387948  0.34369438  0.00059207    -0.66500
Ni2195     Ni  0.70859062  0.32607971  0.03079444     1.34900
C2196       C  0.60530317  0.32357004  0.01667135     0.84600
O2197       O  0.72257215  0.39263234  0.01394474    -0.79500
O2198       O  0.72639651  0.36527604  0.04414367    -0.89700
C2199       C  0.67970749  0.40172513  0.96416105     0.84200
O2200       O  0.73969904  0.34000616  0.00522746    -0.67900
O2201       O  0.59404250  0.30005471  0.96567616    -0.87200
C2202       C  0.73977723  0.34818367  0.98350786     0.85000
C2203       C  0.73208118  0.39007639  0.03477331     1.06600
H2204       H  0.66524683  0.33059331  0.95991044     0.38400
O2205       O  0.65714282  0.33390281  0.97488200    -1.09900
O2206       O  0.61396464  0.30394389  0.01579019    -0.66500
Ni2207     Ni  0.64672806  0.30133914  0.99671395     1.26300
O2208       O  0.71997099  0.35533416  0.97615317    -0.66800
O2209       O  0.61610720  0.27279125  0.97534250    -0.79100
C2210       C  0.66402024  0.26595486  0.02333700     0.84400
O2211       O  0.64096390  0.26955707  0.01837805    -0.66200
Ni2212     Ni  0.62441819  0.34171747  0.96761242     1.27400
Ni2213     Ni  0.69033780  0.36358469  0.99358443     1.26100
H2214       H  0.66716027  0.33588479  0.02957350     0.38900
N2215       N  0.98904500  0.11755912  0.21550751    -0.36700
N2216       N  0.53923897  0.13455832  0.24762831    -0.57300
N2217       N  0.99312042  0.10331946  0.28672370    -0.36700
N2218       N  0.94257413  0.08851026  0.25370625    -0.57300
C2219       C  0.51363112  0.13631940  0.20137250     0.26800
C2220       C  0.96331305  0.11467633  0.20500733     0.26800
C2221       C  0.51942853  0.11901635  0.29962746     0.26800
C2222       C  0.96862852  0.09154727  0.30269779     0.26800
C2223       C  0.55538962  0.13899239  0.22644514     0.35500
C2224       C  0.55847141  0.13660097  0.26544406     0.35500
C2225       C  0.92449815  0.07810218  0.23390440     0.35500
C2226       C  0.92593035  0.07049238  0.27253997     0.35500
C2227       C  0.50366905  0.14644684  0.18214651    -0.22000
C2228       C  0.97183837  0.13326320  0.18478640    -0.22000
C2229       C  0.51168298  0.11712507  0.32409380    -0.22000
C2230       C  0.97984224  0.09870542  0.32614975    -0.22000
C2231       C  0.58513362  0.14408973  0.23099133    -0.23100
C2232       C  0.58736887  0.14389441  0.25570602    -0.23100
C2233       C  0.89622942  0.05354511  0.24025946    -0.23100
C2234       C  0.89651376  0.04969744  0.26477258    -0.23100
C2235       C  0.54373982  0.14008378  0.20343857    -0.18400
C2236       C  0.93289606  0.09139161  0.21046348    -0.18400
C2237       C  0.93691467  0.07262080  0.29658050    -0.18400
C2238       C  0.55035731  0.13170105  0.29038475    -0.18400
H2239       H  0.51782913  0.16081323  0.16734079     0.14500
H2240       H  0.95644812  0.13491433  0.17196702     0.14500
H2241       H  0.52737862  0.12606089  0.33913849     0.14500
H2242       H  0.96720216  0.09177666  0.34326549     0.14500
H2243       H  0.60377159  0.14817166  0.21826220     0.12800
H2244       H  0.60800190  0.14884335  0.26544359     0.12800
H2245       H  0.87700095  0.03979356  0.22871116     0.12800
H2246       H  0.87708995  0.03287718  0.27525996     0.12800
H2247       H  0.98931308  0.10272349  0.22808837     0.26000
H2248       H  0.99222003  0.09818347  0.26843364     0.26000
N2249       N  0.89229555  0.39045027  0.28341135    -0.36700
N2250       N  0.92695497  0.38016610  0.24588662    -0.57300
N2251       N  0.90455267  0.40800102  0.21235564    -0.36700
N2252       N  0.86884657  0.41698300  0.25065754    -0.57300
C2253       C  0.89954699  0.37117738  0.29388192     0.26800
C2254       C  0.86890755  0.39001179  0.29686152     0.26800
C2255       C  0.91484862  0.39405067  0.19702605     0.26800
C2256       C  0.88566834  0.41467323  0.19966420     0.26800
C2257       C  0.94126750  0.37727852  0.26546007     0.35500
C2258       C  0.94583944  0.38441362  0.22650911     0.35500
C2259       C  0.86051356  0.42463671  0.27186337     0.35500
C2260       C  0.86785824  0.43486942  0.23332090     0.35500
C2261       C  0.87963011  0.35736637  0.31364747    -0.22000
C2262       C  0.86043176  0.36955664  0.31567247    -0.22000
C2263       C  0.90208029  0.39149041  0.17437580    -0.22000
C2264       C  0.88359432  0.40450230  0.17605050    -0.22000
C2265       C  0.96958415  0.37971277  0.25849022    -0.23100
C2266       C  0.97215800  0.38369794  0.23361766    -0.23100
C2267       C  0.85335398  0.44698598  0.26788462    -0.23100
C2268       C  0.85839386  0.45376410  0.24349443    -0.23100
C2269       C  0.92762238  0.37098829  0.28904027    -0.18400
C2270       C  0.85855798  0.41078883  0.29444435    -0.18400
C2271       C  0.87328569  0.43260960  0.20827978    -0.18400
C2272       C  0.93812235  0.38678589  0.20244781    -0.18400
H2273       H  0.88045183  0.34180643  0.32630049     0.14500
H2274       H  0.84325441  0.36500096  0.32998066     0.14500
H2275       H  0.90644014  0.38213114  0.15814025     0.14500
H2276       H  0.87086619  0.40704991  0.16136492     0.14500
H2277       H  0.98644612  0.37848431  0.26993215     0.12800
H2278       H  0.99120039  0.38610416  0.22207146     0.12800
H2279       H  0.84548726  0.45747680  0.28111774     0.12800
H2280       H  0.85521591  0.47053391  0.23435372     0.12800
H2281       H  0.90639979  0.40697786  0.27089992     0.26000
H2282       H  0.91335549  0.41629116  0.22939659     0.26000
C2283       C  0.81315873  0.99853482  0.40683998     0.02100
C2284       C  0.80210645  0.46795040  0.41030271     0.02100
C2285       C  0.80976900  0.45244896  0.39305802    -0.18400
C2286       C  0.83028115  0.46711021  0.37336829     0.02100
C2287       C  0.84244101  0.99830828  0.37022153     0.02100
C2288       C  0.83021223  0.01208949  0.38546979    -0.18400
H2289       H  0.83517875  0.03448533  0.38138615     0.04200
H2290       H  0.80031718  0.42866328  0.39538183     0.04200
N2291       N  0.61970780  0.50823070  0.28795217    -0.36700
N2292       N  0.64001251  0.04871267  0.24602543    -0.57300
N2293       N  0.61407746  0.49890487  0.21382397    -0.36700
N2294       N  0.59302087  0.45795761  0.25509023    -0.57300
C2295       C  0.62723103  0.03483884  0.29822812     0.26800
C2296       C  0.60048315  0.48618860  0.30364100     0.26800
C2297       C  0.61652898  0.02039937  0.19859609     0.26800
C2298       C  0.59525974  0.47247184  0.20325597     0.26800
C2299       C  0.65705429  0.06791883  0.26354862     0.35500
C2300       C  0.64979966  0.06350660  0.22456725     0.35500
C2301       C  0.58728872  0.44292153  0.27641599     0.35500
C2302       C  0.58974143  0.43865561  0.23712738     0.35500
C2303       C  0.61224120  0.02966505  0.32070246    -0.22000
C2304       C  0.59697928  0.49907964  0.32482046    -0.22000
C2305       C  0.59929116  0.00718211  0.17803373    -0.22000
C2306       C  0.58540370  0.47731307  0.18123640    -0.22000
C2307       C  0.67898411  0.09469144  0.25304346    -0.23100
C2308       C  0.67335134  0.09238654  0.22855559    -0.23100
C2309       C  0.57955275  0.41369854  0.27178530    -0.23100
C2310       C  0.58271497  0.41147551  0.24718514    -0.23100
C2311       C  0.64838767  0.06354918  0.28855865    -0.18400
C2312       C  0.58716567  0.45491215  0.29972294    -0.18400
C2313       C  0.58899662  0.44422944  0.21193925    -0.18400
C2314       C  0.63528282  0.05167811  0.20212582    -0.18400
H2315       H  0.61278732  0.04583420  0.33349106     0.14500
H2316       H  0.58468993  0.48840606  0.34149711     0.14500
H2317       H  0.59736370  0.01776681  0.16179495     0.14500
H2318       H  0.57056998  0.46081953  0.16830756     0.14500
H2319       H  0.69523405  0.11476969  0.26229854     0.12800
H2320       H  0.68472449  0.11043115  0.21560006     0.12800
H2321       H  0.57209843  0.39547449  0.28450330     0.12800
H2322       H  0.57884488  0.39152967  0.23786271     0.12800
H2323       H  0.62945636  0.50558606  0.27186736     0.26000
H2324       H  0.62733608  0.50174095  0.22905101     0.26000
C2325       C  0.81616034  0.01523554  0.10021665     0.02100
C2326       C  0.80687602  0.48452966  0.09980045     0.02100
C2327       C  0.81709272  0.47262420  0.11804899    -0.18400
C2328       C  0.83764223  0.49082008  0.13585167     0.02100
C2329       C  0.84712638  0.02166625  0.13598662     0.02100
C2330       C  0.83642269  0.03338732  0.11816776    -0.18400
H2331       H  0.84478471  0.05713897  0.11779822     0.04200
H2332       H  0.80905795  0.44893845  0.11833672     0.04200
C2333       C  0.69095330  0.18142337  0.39798331     0.02100
C2334       C  0.66787526  0.19001065  0.39933497     0.02100
C2335       C  0.64756002  0.18299947  0.37993005    -0.18400
C2336       C  0.64767964  0.16550247  0.36044301     0.02100
C2337       C  0.67019295  0.15592443  0.35932489     0.02100
C2338       C  0.69277109  0.16597781  0.37746204    -0.18400
H2339       H  0.71108507  0.16024474  0.37637964     0.04200
H2340       H  0.63050707  0.19041044  0.38038597     0.04200
C2341       C  0.64732203  0.16688233  0.08317430     0.02100
C2342       C  0.66304649  0.15022579  0.08347308     0.02100
C2343       C  0.65503584  0.12838177  0.10160964    -0.18400
C2344       C  0.63507390  0.12520258  0.12136611     0.02100
C2345       C  0.62022551  0.14281809  0.12133863     0.02100
C2346       C  0.62563612  0.16234356  0.10185856    -0.18400
H2347       H  0.61427146  0.17572197  0.10209643     0.04200
H2348       H  0.66631186  0.11494105  0.10116669     0.04200
C2349       C  0.51059270  0.34507985  0.41562449     0.02100
C2350       C  0.97847274  0.32486988  0.41140981     0.02100
C2351       C  0.96559648  0.32757952  0.38966126    -0.18400
C2352       C  0.98328367  0.34992897  0.37253054     0.02100
C2353       C  0.51495667  0.37069108  0.37714384     0.02100
C2354       C  0.52812136  0.36762169  0.39844558    -0.18400
H2355       H  0.55269887  0.38254248  0.40138713     0.04200
H2356       H  0.94124876  0.31234404  0.38616776     0.04200
C2357       C  0.53144814  0.33348939  0.09661722     0.02100
C2358       C  0.99986285  0.32441637  0.09435080     0.02100
C2359       C  0.98579471  0.33526627  0.11055341    -0.18400
C2360       C  0.00125174  0.35188785  0.13088924     0.02100
C2361       C  0.53215801  0.35909698  0.13477655     0.02100
C2362       C  0.54737355  0.35084615  0.11684870    -0.18400
H2363       H  0.57190178  0.35817027  0.11857749     0.04200
H2364       H  0.96173714  0.32938886  0.10792989     0.04200
C2365       C  0.57033463  0.43382046  0.32062670    -0.06300
C2366       C  0.54503402  0.43473907  0.33200280    -0.17400
C2367       C  0.53064052  0.41805130  0.35300623     0.10900
C2368       C  0.53530907  0.39412819  0.35912523    -0.06200
C2369       C  0.56029467  0.39268474  0.34785859    -0.17400
C2370       C  0.57933966  0.41376227  0.33016762     0.11000
S2371       S  0.51206106  0.43222124  0.37340986    -0.32400
S2372       S  0.61518107  0.41450102  0.32156140    -0.32400
H2373       H  0.63092469  0.44403277  0.31298643     0.29000
H2374       H  0.51153890  0.41613229  0.39410978     0.29000
H2375       H  0.53835381  0.45063241  0.32585809     0.19600
H2376       H  0.56576471  0.37579744  0.35360367     0.19600
C2377       C  0.57829336  0.41932641  0.19379287    -0.06300
C2378       C  0.55018057  0.39273784  0.19795846    -0.17400
C2379       C  0.53766716  0.37065982  0.18026380     0.10900
C2380       C  0.55002452  0.37708213  0.15620536    -0.06200
C2381       C  0.57916171  0.40274988  0.15233635    -0.17400
C2382       C  0.59422871  0.42277205  0.17122949     0.11000
S2383       S  0.00768811  0.33421544  0.18976881    -0.32400
S2384       S  0.63342043  0.45259527  0.16525117    -0.32400
H2385       H  0.64240201  0.45670374  0.18966593     0.29000
H2386       H  0.01330958  0.31885506  0.17098189     0.29000
H2387       H  0.53791650  0.38880507  0.21521585     0.19600
H2388       H  0.59015931  0.40753992  0.13444214     0.19600
C2389       C  0.65896793  0.09008392  0.30505030    -0.06300
C2390       C  0.67036183  0.08931740  0.32806503    -0.17400
C2391       C  0.67284395  0.10940572  0.34624948     0.10900
C2392       C  0.66973995  0.13456467  0.34034112    -0.06200
C2393       C  0.66362833  0.13786860  0.31603562    -0.17400
C2394       C  0.65479673  0.11457332  0.29947418     0.11000
S2395       S  0.67548101  0.09887279  0.37692640    -0.32400
S2396       S  0.63422241  0.11554343  0.27327187    -0.32400
H2397       H  0.61154903  0.08520827  0.27458549     0.29000
H2398       H  0.65319513  0.10577854  0.38646294     0.29000
H2399       H  0.67356657  0.07070591  0.33284686     0.19600
H2400       H  0.66230614  0.15726821  0.31053547     0.19600
C2401       C  0.63437864  0.10663324  0.14266983    -0.06300
C2402       C  0.66297215  0.11066634  0.15117313    -0.17400
C2403       C  0.66422001  0.09214582  0.16920280     0.10900
C2404       C  0.63667588  0.07235477  0.18232026    -0.06200
C2405       C  0.60840421  0.06982628  0.17485698    -0.17400
C2406       C  0.60677069  0.08354055  0.15348734     0.11000
S2407       S  0.70111519  0.09341161  0.17277758    -0.32400
S2408       S  0.57019148  0.06479768  0.13823285    -0.32400
H2409       H  0.58266162  0.07478101  0.11473429     0.29000
H2410       H  0.68908872  0.06485783  0.18299597     0.29000
H2411       H  0.68457917  0.12706195  0.14251929     0.19600
H2412       H  0.58685498  0.05375117  0.18386215     0.19600
C2413       C  0.96749718  0.35293330  0.35107768    -0.06300
C2414       C  0.95619137  0.37281783  0.35257860    -0.17400
C2415       C  0.94737921  0.38179713  0.33186140     0.10900
C2416       C  0.94332921  0.36602671  0.30992500    -0.06200
C2417       C  0.95158035  0.34358068  0.30901552    -0.17400
C2418       C  0.96472399  0.33764956  0.32922021     0.11000
S2419       S  0.44304453  0.41454998  0.33426527    -0.32400
S2420       S  0.97683749  0.31001781  0.32743243    -0.32400
H2421       H  0.96999283  0.30308493  0.30279371     0.29000
H2422       H  0.95317259  0.42433662  0.31026965     0.29000
H2423       H  0.45627623  0.38327270  0.36968530     0.19600
H2424       H  0.94779188  0.33085917  0.29254389     0.19600
C2425       C  0.98355155  0.36092579  0.14787131    -0.06300
C2426       C  0.99563760  0.39125444  0.15316424    -0.17400
C2427       C  0.98099633  0.40065584  0.17030113     0.10900
C2428       C  0.95341410  0.37924423  0.18234728    -0.06200
C2429       C  0.94033897  0.34924440  0.17606247    -0.17400
C2430       C  0.95489102  0.33977236  0.15906083     0.11000
S2431       S  0.99945208  0.44003644  0.17640577    -0.32400
S2432       S  0.93633484  0.30012057  0.15396572    -0.32400
H2433       H  0.96367923  0.29872698  0.14971189     0.29000
H2434       H  0.97447875  0.44044118  0.18861975     0.29000
H2435       H  0.51690436  0.40747603  0.14468210     0.19600
H2436       H  0.91901020  0.33287578  0.18514851     0.19600
C2437       C  0.83602710  0.44803359  0.35636824    -0.06300
C2438       C  0.81272143  0.43103333  0.33972192    -0.17400
C2439       C  0.81862319  0.41707343  0.32010873     0.10900
C2440       C  0.84862802  0.42041421  0.31687169    -0.06200
C2441       C  0.87096948  0.43519169  0.33479170    -0.17400
C2442       C  0.86487108  0.44869443  0.35464555     0.11000
S2443       S  0.78736810  0.39650662  0.29941356    -0.32400
S2444       S  0.89616820  0.96941832  0.37523546    -0.32400
H2445       H  0.87723509  0.96759650  0.39530810     0.29000
H2446       H  0.79889788  0.37856313  0.28975836     0.29000
H2447       H  0.79028355  0.42995381  0.34131681     0.19600
H2448       H  0.89385806  0.43736415  0.33270463     0.19600
C2449       C  0.86497397  0.44891031  0.19027181    -0.06300
C2450       C  0.83418970  0.44355106  0.18990794    -0.17400
C2451       C  0.82518136  0.45807336  0.17320805     0.10900
C2452       C  0.84670784  0.47681305  0.15521243    -0.06200
C2453       C  0.87706259  0.48121571  0.15502403    -0.17400
C2454       C  0.88690156  0.46891649  0.17300189     0.11000
S2455       S  0.78588358  0.45164008  0.17574684    -0.32400
S2456       S  0.92781921  0.48018043  0.17302221    -0.32400
H2457       H  0.92947144  0.47681068  0.19818397     0.29000
H2458       H  0.79251108  0.47963508  0.16674914     0.29000
H2459       H  0.81714354  0.42826450  0.20301384     0.19600
H2460       H  0.89196148  0.99472730  0.14180741     0.19600
C2461       C  0.91417885  0.05338124  0.31603557    -0.06300
C2462       C  0.90847809  0.06628717  0.33649484    -0.17400
C2463       C  0.88907277  0.04851034  0.35568767     0.10900
C2464       C  0.86763901  0.01766989  0.35160429    -0.06200
C2465       C  0.87229417  0.50621076  0.32931555    -0.17400
C2466       C  0.89742854  0.02216743  0.31421121     0.11000
S2467       S  0.89563469  0.06542287  0.38546685    -0.32400
S2468       S  0.91019753  0.50290550  0.29351368    -0.32400
H2469       H  0.94148662  0.52536910  0.29093996     0.29000
H2470       H  0.92214856  0.09267166  0.37914766     0.29000
H2471       H  0.92102948  0.09025443  0.33827323     0.19600
H2472       H  0.85650863  0.48406830  0.32357487     0.19600
C2473       C  0.86984607  0.04239312  0.15347484    -0.06300
C2474       C  0.85905015  0.05220204  0.17326870    -0.17400
C2475       C  0.87966960  0.07125797  0.19063826     0.10900
C2476       C  0.91103600  0.07763714  0.18986681    -0.06200
C2477       C  0.92186453  0.06904156  0.16924111    -0.17400
C2478       C  0.90215027  0.05346792  0.15032475     0.11000
S2479       S  0.86472844  0.08704899  0.21284295    -0.32400
S2480       S  0.92016510  0.04976939  0.12257463    -0.32400
H2481       H  0.89498173  0.04161718  0.10719680     0.29000
H2482       H  0.89376785  0.11133421  0.21876429     0.29000
H2483       H  0.83455627  0.04553700  0.17484904     0.19600
H2484       H  0.94605359  0.07477533  0.16768533     0.19600
C2485       C  0.62298055  0.15699299  0.34228148    -0.06300
C2486       C  0.60115681  0.12682400  0.33916222    -0.17400
C2487       C  0.57840713  0.11790055  0.32149779     0.10900
C2488       C  0.57574038  0.13968227  0.30794210    -0.06200
C2489       C  0.59724523  0.16986013  0.31131713    -0.17400
C2490       C  0.62130972  0.17871108  0.32788888     0.11000
S2491       S  0.55410635  0.07849632  0.31668854    -0.32400
S2492       S  0.65070906  0.21752805  0.32965112    -0.32400
H2493       H  0.63843643  0.22813904  0.31193476     0.29000
H2494       H  0.54935841  0.08070489  0.29187086     0.29000
H2495       H  0.60264931  0.11009088  0.34994121     0.19600
H2496       H  0.59531500  0.18639080  0.30063001     0.19600
C2497       C  0.56229024  0.14282648  0.18078580    -0.06300
C2498       C  0.59322014  0.16616063  0.17826212    -0.17400
C2499       C  0.61305263  0.16579735  0.15984895     0.10900
C2500       C  0.60087033  0.14359538  0.14189042    -0.06200
C2501       C  0.56878803  0.12396168  0.14186517    -0.17400
C2502       C  0.55000233  0.12147560  0.16199927     0.11000
S2503       S  0.65336325  0.19457935  0.15995195    -0.32400
S2504       S  0.51161787  0.08914392  0.16319337    -0.32400
H2505       H  0.51226199  0.08341179  0.18806617     0.29000
H2506       H  0.66555625  0.17764386  0.14935707     0.29000
H2507       H  0.60255120  0.18370952  0.19163478     0.19600
H2508       H  0.55862529  0.10913801  0.12667838     0.19600
C2509       C  0.66006021  0.23883856  0.03611170    -0.06300
C2510       C  0.68376453  0.24249337  0.05186571    -0.17400
C2511       C  0.68080091  0.21927830  0.06669499     0.10900
C2512       C  0.65408266  0.19089650  0.06522403    -0.06200
C2513       C  0.63087736  0.18672148  0.04877755    -0.17400
C2514       C  0.63359719  0.21020007  0.03417426     0.11000
S2515       S  0.71100104  0.22816253  0.08829345    -0.32400
S2516       S  0.60272791  0.20201599  0.01342308    -0.32400
H2517       H  0.62256197  0.22052225  0.99465936     0.29000
H2518       H  0.69111278  0.21044473  0.10731537     0.29000
H2519       H  0.70420239  0.26422947  0.05375776     0.19600
H2520       H  0.61011551  0.16507971  0.04770399     0.19600
C2521       C  0.58442682  0.32348290  0.03682834    -0.06300
C2522       C  0.58647136  0.31408473  0.06032962    -0.17400
C2523       C  0.56904226  0.31627371  0.08012849     0.10900
C2524       C  0.54906627  0.32820606  0.07646162    -0.06200
C2525       C  0.54635190  0.33661689  0.05284982    -0.17400
C2526       C  0.56307658  0.33389728  0.03307269     0.11000
S2527       S  0.57190956  0.30304974  0.10975385    -0.32400
S2528       S  0.55589366  0.34320960  0.00310660    -0.32400
H2529       H  0.52839959  0.34378130  0.00923376     0.29000
H2530       H  0.59561904  0.29649182  0.10358594     0.29000
H2531       H  0.60222621  0.30556186  0.06324786     0.19600
H2532       H  0.53133297  0.34597600  0.04993346     0.19600
C2533       C  0.75027423  0.41697165  0.04931948    -0.06300
C2534       C  0.73752154  0.41912212  0.07174557    -0.17400
C2535       C  0.75483175  0.44245729  0.08773749     0.10900
C2536       C  0.78573860  0.46384063  0.08137142    -0.06200
C2537       C  0.79810114  0.46225047  0.05857299    -0.17400
C2538       C  0.78062036  0.43924747  0.04239430     0.11000
S2539       S  0.73781959  0.44426081  0.11662441    -0.32400
S2540       S  0.79903617  0.43856745  0.01394923    -0.32400
H2541       H  0.78516332  0.40745979  0.01259468     0.29000
H2542       H  0.70743628  0.91839926  0.11268297     0.29000
H2543       H  0.71413933  0.40206150  0.07689464     0.19600
H2544       H  0.82215899  0.47785785  0.05392247     0.19600
C2545       C  0.66500696  0.20738496  0.41996083    -0.06300
C2546       C  0.69114606  0.23463054  0.42611550    -0.17400
C2547       C  0.68858661  0.25427159  0.44244671     0.10900
C2548       C  0.65926066  0.24653184  0.45305604    -0.06200
C2549       C  0.63350322  0.21896429  0.44767571    -0.17400
C2550       C  0.63592642  0.19923280  0.43160555     0.11000
S2551       S  0.72301690  0.28956635  0.44762136    -0.32400
S2552       S  0.60044077  0.16453583  0.42670679    -0.32400
H2553       H  0.61407461  0.14825938  0.41751423     0.29000
H2554       H  0.70773354  0.30636726  0.44898219     0.29000
H2555       H  0.71337537  0.24149967  0.41705776     0.19600
H2556       H  0.61095187  0.21295582  0.45578477     0.19600
C2557       C  0.52871210  0.34090981  0.43487261    -0.06300
C2558       C  0.53993935  0.32141539  0.42946084    -0.17400
C2559       C  0.56324285  0.32103853  0.44300684     0.10900
C2560       C  0.57630972  0.34080887  0.46267175    -0.06200
C2561       C  0.56550260  0.36072240  0.46809855    -0.17400
C2562       C  0.54188314  0.36098473  0.45439720     0.11000
S2563       S  0.57677249  0.29602469  0.43310620    -0.32400
S2564       S  0.53027679  0.38802594  0.46212409    -0.32400
H2565       H  0.50026344  0.37193897  0.45266682     0.29000
H2566       H  0.60840818  0.31653462  0.43673874     0.29000
H2567       H  0.53182067  0.30754661  0.41348006     0.19600
H2568       H  0.57512033  0.37577326  0.48325375     0.19600
C2569       C  0.73714407  0.41152441  0.46630269    -0.06300
C2570       C  0.76748004  0.41548332  0.46448322    -0.17400
C2571       C  0.78953754  0.43477747  0.44742765     0.10900
C2572       C  0.78155405  0.45103831  0.43131218    -0.06200
C2573       C  0.75162193  0.44778606  0.43325044    -0.17400
C2574       C  0.72933678  0.42811563  0.45023962     0.11000
S2575       S  0.82725171  0.43699891  0.44746108    -0.32400
S2576       S  0.69162139  0.42544650  0.45031972    -0.32400
H2577       H  0.67613422  0.39486755  0.44494047     0.29000
H2578       H  0.84392400  0.46272709  0.43323863     0.29000
H2579       H  0.77435442  0.40330518  0.47650213     0.19600
H2580       H  0.74510358  0.45977355  0.42071107     0.19600
C2581       C  0.52425933  0.20607089  0.92204409    -0.06300
C2582       C  0.53859004  0.23570380  0.91419239    -0.17400
C2583       C  0.56225915  0.25844838  0.92733224     0.10900
C2584       C  0.57160553  0.25187530  0.94959647    -0.06200
C2585       C  0.55725866  0.22211068  0.95756338    -0.17400
C2586       C  0.53404258  0.19911043  0.94383134     0.11000
S2587       S  0.58055474  0.29517857  0.91379549    -0.32400
S2588       S  0.01826097  0.16174371  0.95470413    -0.32400
H2589       H  0.01303219  0.14821732  0.93181528     0.29000
H2590       H  0.61095169  0.30271189  0.92032478     0.29000
H2591       H  0.53190747  0.24106013  0.89710607     0.19600
H2592       H  0.56418223  0.21674378  0.97450450     0.19600
C2593       C  0.69143329  0.47458343  0.92032018    -0.06300
C2594       C  0.67359494  0.46738550  0.94190953    -0.17400
C2595       C  0.67235791  0.44599835  0.95811259     0.10900
C2596       C  0.68875510  0.43070578  0.95238200    -0.06200
C2597       C  0.70866078  0.43960467  0.93181967    -0.17400
C2598       C  0.71012858  0.46132372  0.91573775     0.11000
S2599       S  0.64811256  0.43704567  0.98534305    -0.32400
S2600       S  0.73194970  0.96701136  0.88770772    -0.32400
H2601       H  0.73617944  0.99545461  0.88330060     0.29000
H2602       H  0.63802078  0.45785542  0.98186688     0.29000
H2603       H  0.65835801  0.47654398  0.94503184     0.19600
H2604       H  0.72119282  0.42793356  0.92719416     0.19600
C2605       C  0.78070620  0.30840339  0.58612960    -0.06300
C2606       C  0.79075049  0.31888411  0.56226454    -0.17400
C2607       C  0.77014593  0.31869249  0.54509561     0.10900
C2608       C  0.73878668  0.30878833  0.55188966    -0.06200
C2609       C  0.72811217  0.29635365  0.57510343    -0.17400
C2610       C  0.74853193  0.29578677  0.59219342     0.11000
S2611       S  0.78543818  0.33233861  0.51492099    -0.32400
S2612       S  0.73187549  0.27940206  0.62151387    -0.32400
H2613       H  0.75552514  0.27373009  0.62868259     0.29000
H2614       H  0.75681371  0.31626305  0.50319992     0.29000
H2615       H  0.81514161  0.32845346  0.55715537     0.19600
H2616       H  0.70408154  0.28865830  0.58049028     0.19600
C2617       C  0.76406596  0.34900312  0.96633180    -0.06300
C2618       C  0.79529981  0.36280041  0.97361475    -0.17400
C2619       C  0.81917893  0.36446848  0.95812225     0.10900
C2620       C  0.81181727  0.35073083  0.93514344    -0.06200
C2621       C  0.78058481  0.33658286  0.92798878    -0.17400
C2622       C  0.75680307  0.33548737  0.94322300     0.11000
S2623       S  0.85861263  0.38513195  0.96845273    -0.32400
S2624       S  0.71753409  0.31577972  0.93237174    -0.32400
H2625       H  0.70350504  0.30336119  0.95504671     0.29000
H2626       H  0.87242593  0.39659655  0.94555953     0.29000
H2627       H  0.80133272  0.37320825  0.99127284     0.19600
H2628       H  0.77468445  0.32636222  0.91024550     0.19600
C2629       C  0.68341970  0.47931594  0.57595867    -0.06300
C2630       C  0.69855367  0.46456384  0.58472423    -0.17400
C2631       C  0.69605135  0.43938979  0.57340051     0.10900
C2632       C  0.67911269  0.42888812  0.55166612    -0.06200
C2633       C  0.66481228  0.44430824  0.54222239    -0.17400
C2634       C  0.66646385  0.46916991  0.55427325     0.11000
S2635       S  0.71253972  0.42016617  0.58937403    -0.32400
S2636       S  0.64549867  0.48599848  0.54140393    -0.32400
H2637       H  0.65248721  0.50826443  0.55867446     0.29000
H2638       H  0.68717819  0.39158582  0.58532240     0.29000
H2639       H  0.71012443  0.47111557  0.60200605     0.19600
H2640       H  0.65204918  0.43680850  0.52552322     0.19600
C2641       C  0.53872863  0.19641841  0.56901074    -0.06300
C2642       C  0.53897808  0.18977030  0.54431491    -0.17400
C2643       C  0.56040856  0.21097693  0.52768532     0.10900
C2644       C  0.58226808  0.23983290  0.53583275    -0.06200
C2645       C  0.58174573  0.24656825  0.56044379    -0.17400
C2646       C  0.56024926  0.22553521  0.57699282     0.11000
S2647       S  0.56127257  0.19983352  0.49662792    -0.32400
S2648       S  0.56207218  0.23772828  0.60803585    -0.32400
H2649       H  0.53175567  0.21640716  0.61539770     0.29000
H2650       H  0.53389819  0.17198594  0.49813967     0.29000
H2651       H  0.52338967  0.16734881  0.53829732     0.19600
H2652       H  0.59801130  0.26865243  0.56682926     0.19600
C2653       C  0.92913184  0.36052342  0.81206584    -0.06300
C2654       C  0.93630158  0.35316302  0.83469148    -0.17400
C2655       C  0.91937030  0.35149792  0.85592867     0.10900
C2656       C  0.89209951  0.35404137  0.85455927    -0.06200
C2657       C  0.88254008  0.35717136  0.83133091    -0.17400
C2658       C  0.90176558  0.36278308  0.81060548     0.11000
S2659       S  0.93622803  0.34936190  0.88405425    -0.32400
S2660       S  0.89148888  0.37580118  0.78389393    -0.32400
H2661       H  0.92228600  0.39559059  0.77624286     0.29000
H2662       H  0.92963500  0.36941241  0.89652153     0.29000
H2663       H  0.95700147  0.35111170  0.83617251     0.19600
H2664       H  0.86129201  0.35819087  0.82963482     0.19600
C2665       C  0.59029129  0.43159879  0.80844251    -0.06300
C2666       C  0.58395595  0.42129996  0.83267449    -0.17400
C2667       C  0.60345034  0.43784234  0.85155332     0.10900
C2668       C  0.63162921  0.46426674  0.84614518    -0.06200
C2669       C  0.63948774  0.47314831  0.82180171    -0.17400
C2670       C  0.61881972  0.45815164  0.80312905     0.11000
S2671       S  0.58980950  0.42510710  0.88218539    -0.32400
S2672       S  0.63024230  0.47581587  0.77362001    -0.32400
H2673       H  0.59987101  0.46659717  0.76598358     0.29000
H2674       H  0.60088606  0.45366196  0.89199631     0.29000
H2675       H  0.56246523  0.40106359  0.83716057     0.19600
H2676       H  0.66099174  0.99370345  0.81803245     0.19600
C2677       C  0.63131964  0.47564182  0.65313944    -0.06300
C2678       C  0.63645466  0.45239408  0.66074193    -0.17400
C2679       C  0.61530788  0.42946741  0.67622194     0.10900
C2680       C  0.59071825  0.43188555  0.68748841    -0.06200
C2681       C  0.58691231  0.45625671  0.68129010    -0.17400
C2682       C  0.60483588  0.47620939  0.66276046     0.11000
S2683       S  0.61948001  0.39679371  0.67849226    -0.32400
S2684       S  0.58858763  0.49712927  0.64956319    -0.32400
H2685       H  0.60033396  0.49783776  0.62595215     0.29000
H2686       H  0.58853944  0.37683129  0.68560409     0.29000
H2687       H  0.65585075  0.45072991  0.65292617     0.19600
H2688       H  0.56737270  0.45772801  0.68907019     0.19600
C2689       C  0.92813224  0.34841261  0.68633257    -0.06300
C2690       C  0.92532153  0.37211544  0.67672033    -0.17400
C2691       C  0.90307508  0.36729829  0.65938168     0.10900
C2692       C  0.88069118  0.33779863  0.65353009    -0.06200
C2693       C  0.88421432  0.31419974  0.66257616    -0.17400
C2694       C  0.90820653  0.31925841  0.67820526     0.11000
S2695       S  0.90558939  0.39963171  0.64478487    -0.32400
S2696       S  0.91176290  0.28755037  0.68720487    -0.32400
H2697       H  0.94342284  0.30337947  0.69301966     0.29000
H2698       H  0.89059545  0.38517892  0.62341187     0.29000
H2699       H  0.94140450  0.39470146  0.68217147     0.19600
H2700       H  0.86788009  0.29150992  0.65754987     0.19600
C2701       C  0.53515723  0.12655426  0.81068893    -0.06300
C2702       C  0.50269878  0.11061260  0.81451582    -0.17400
C2703       C  0.48381021  0.12077964  0.82841788     0.10900
C2704       C  0.50581010  0.14641821  0.84434577    -0.06200
C2705       C  0.53801955  0.16278130  0.83901616    -0.17400
C2706       C  0.55246548  0.15391248  0.82193175     0.11000
S2707       S  0.90590842  0.09512917  0.82210227    -0.32400
S2708       S  0.59373881  0.17808097  0.81636888    -0.32400
H2709       H  0.59438783  0.16983021  0.79211591     0.29000
H2710       H  0.89746213  0.11532666  0.83269954     0.29000
H2711       H  0.49301636  0.09039672  0.80464449     0.19600
H2712       H  0.55255695  0.18372880  0.84785789     0.19600
C2713       C  0.62200622  0.05197119  0.81817012    -0.06300
C2714       C  0.65421803  0.06489004  0.82065956    -0.17400
C2715       C  0.66682987  0.05307316  0.83668270     0.10900
C2716       C  0.64682193  0.02787653  0.85107364    -0.06200
C2717       C  0.61437298  0.01551570  0.84916593    -0.17400
C2718       C  0.60176341  0.02722318  0.83270217     0.11000
S2719       S  0.70866827  0.07048810  0.83698624    -0.32400
S2720       S  0.56010022  0.01026203  0.82983834    -0.32400
H2721       H  0.55201826  0.98758317  0.84721852     0.29000
H2722       H  0.70913272  0.04359701  0.83876301     0.29000
H2723       H  0.66972179  0.08395792  0.80946654     0.19600
H2724       H  0.59901626  0.99647030  0.86038554     0.19600
C2725       C  0.66474134  0.04426494  0.65449668    -0.06300
C2726       C  0.67628789  0.04494631  0.67764456    -0.17400
C2727       C  0.67124785  0.06023149  0.69679897     0.10900
C2728       C  0.65103687  0.07217220  0.69362876    -0.06200
C2729       C  0.64069952  0.07225293  0.66995534    -0.17400
C2730       C  0.64923702  0.06043641  0.65022500     0.11000
S2731       S  0.69285162  0.06511236  0.72404221    -0.32400
S2732       S  0.63846256  0.56437434  0.61960343    -0.32400
H2733       H  0.62535154  0.58231536  0.62578641     0.29000
H2734       H  0.69412969  0.09197710  0.73068532     0.20600
H2735       H  0.69020517  0.03437842  0.68056083     0.19600
H2736       H  0.62532791  0.08112393  0.66680771     0.19600
C2737       C  0.56715332  0.14000915  0.68644221    -0.06300
C2738       C  0.57137846  0.12958724  0.66377456    -0.17400
C2739       C  0.55880979  0.13361187  0.64255647     0.10900
C2740       C  0.53731133  0.14413246  0.64431831    -0.06200
C2741       C  0.53424315  0.15605445  0.66645771    -0.17400
C2742       C  0.55061548  0.15599280  0.68695208     0.11000
S2743       S  0.57133216  0.12450607  0.61423660    -0.32400
S2744       S  0.55095584  0.17826854  0.71239292    -0.32400
H2745       H  0.57959577  0.18326783  0.72132268     0.29000
H2746       H  0.54724836  0.12168859  0.59952201     0.29000
H2747       H  0.58430129  0.11777456  0.66236523     0.19600
H2748       H  0.51998399  0.16659703  0.66747030     0.19600
C2749       C  0.94434667  0.08504653  0.80194559    -0.06300
C2750       C  0.93881666  0.07314300  0.83133709    -0.17400
C2751       C  0.94011093  0.09489943  0.85419447     0.10900
C2752       C  0.94725546  0.12988993  0.84861352    -0.06200
C2753       C  0.95440514  0.14335443  0.81949593    -0.17400
C2754       C  0.95351335  0.12134771  0.79620009     0.11000
S2755       S  0.93580505  0.08044817  0.88442006    -0.32400
S2756       S  0.96760949  0.14065140  0.76750374    -0.32400
H2757       H  0.96955593  0.11836251  0.75472030     0.29000
H2758       H  0.96281847  0.10537753  0.89265072     0.29000
H2759       H  0.93112044  0.05031353  0.83606271     0.19600
H2760       H  0.96289315  0.16677719  0.81621015     0.19600
C2761       C  0.87455867  0.40240729  0.86113034    -0.06300
C2762       C  0.85110308  0.40710660  0.85165415    -0.17400
C2763       C  0.85726983  0.42657440  0.83209232     0.10900
C2764       C  0.88628780  0.43868427  0.81951434    -0.06200
C2765       C  0.90980907  0.43439575  0.82923479    -0.17400
C2766       C  0.90513996  0.41922536  0.85123327     0.11000
S2767       S  0.82695307  0.43449842  0.82378991    -0.32400
S2768       S  0.93915352  0.42303369  0.86592924    -0.32400
H2769       H  0.92531318  0.41544157  0.88929587     0.29000
H2770       H  0.84702960  0.46307738  0.81423027     0.29000
H2771       H  0.82769140  0.39540465  0.85935736     0.19600
H2772       H  0.93224577  0.44346246  0.81997145     0.19600
C2773       C  0.96801223  0.10310669  0.64023853    -0.06300
C2774       C  0.94031808  0.10169666  0.64909254    -0.17400
C2775       C  0.92109700  0.08027587  0.66643274     0.10900
C2776       C  0.93216232  0.06319616  0.67824579    -0.06200
C2777       C  0.96021117  0.06530998  0.66981303    -0.17400
C2778       C  0.97575437  0.08211769  0.64922611     0.11000
S2779       S  0.88190733  0.07382516  0.67035607    -0.32400
S2780       S  0.99982550  0.07074643  0.63268759    -0.32400
H2781       H  0.99568023  0.08013353  0.60981562     0.29000
H2782       H  0.86877330  0.04424086  0.67857568     0.29000
H2783       H  0.93267514  0.11624491  0.64149136     0.19600
H2784       H  0.96817891  0.05114343  0.67771086     0.19600
C2785       C  0.85145866  0.40743954  0.69610103    -0.06300
C2786       C  0.85415911  0.38229769  0.70195739    -0.17400
C2787       C  0.84236802  0.35732004  0.68680493     0.10900
C2788       C  0.83318340  0.35933136  0.66295951    -0.06200
C2789       C  0.82879990  0.38364592  0.65771956    -0.17400
C2790       C  0.83563893  0.40630424  0.67460183     0.11000
S2791       S  0.83740751  0.32325665  0.69986218    -0.32400
S2792       S  0.82293824  0.43266798  0.66773423    -0.32400
H2793       H  0.81910830  0.43864756  0.69212907     0.29000
H2794       H  0.81606044  0.30435088  0.68269911     0.29000
H2795       H  0.86491914  0.38166716  0.71870060     0.19600
H2796       H  0.82026028  0.38538837  0.64020741     0.19600
C2797       C  0.92148340  0.15578984  0.53593892    -0.06300
C2798       C  0.93763322  0.17863005  0.55275679    -0.17400
C2799       C  0.96020212  0.17870764  0.56780311     0.10900
C2800       C  0.96768649  0.15578402  0.56578664    -0.06200
C2801       C  0.95171772  0.13292035  0.54888429    -0.17400
C2802       C  0.92886967  0.13272532  0.53391039     0.11000
S2803       S  0.97734642  0.20685438  0.59084771    -0.32400
S2804       S  0.91031302  0.10272342  0.51262698    -0.32400
H2805       H  0.90708670  0.11985584  0.49433916     0.29000
H2806       H  0.96393174  0.22406244  0.58380791     0.29000
H2807       H  0.93177150  0.19615282  0.55461471     0.19600
H2808       H  0.95678069  0.11481161  0.54765248     0.19600
C2809       C  0.81069578  0.06652772  0.45022845    -0.06300
C2810       C  0.82784665  0.05321883  0.45801616    -0.17400
C2811       C  0.82782652  0.02982343  0.44500222     0.10900
C2812       C  0.80895847  0.01814199  0.42440708    -0.06200
C2813       C  0.79077427  0.03045057  0.41726215    -0.17400
C2814       C  0.79196615  0.05476591  0.42931904     0.11000
S2815       S  0.85413947  0.01745016  0.45458727    -0.32400
S2816       S  0.77106043  0.07097268  0.41528996    -0.32400
H2817       H  0.79620243  0.10027745  0.41624213     0.29000
H2818       H  0.86479278  0.51634529  0.42965795     0.29000
H2819       H  0.84226835  0.06177144  0.47383696     0.19600
H2820       H  0.77724128  0.02239459  0.40093454     0.19600
C2821       C  0.71943745  0.04906566  0.57673044    -0.06300
C2822       C  0.71087540  0.06687201  0.56348426    -0.17400
C2823       C  0.73073840  0.08718516  0.54587625     0.10900
C2824       C  0.76008776  0.08948441  0.54038154    -0.06200
C2825       C  0.76917581  0.07235951  0.55425495    -0.17400
C2826       C  0.74949521  0.05264194  0.57256179     0.11000
S2827       S  0.71723787  0.11012345  0.53185649    -0.32400
S2828       S  0.76460084  0.03340881  0.59005759    -0.32400
H2829       H  0.74624197  0.02918185  0.61109507     0.29000
H2830       H  0.74658961  0.13612083  0.53165820     0.29000
H2831       H  0.68850723  0.06534859  0.56729532     0.19600
H2832       H  0.79162610  0.07402609  0.55063727     0.19600
C2833       C  0.91242618  0.25336172  0.45847521    -0.06300
C2834       C  0.90755954  0.27701573  0.45239602    -0.17400
C2835       C  0.92944753  0.30113758  0.43822039     0.10900
C2836       C  0.95693612  0.30168332  0.42932364    -0.06200
C2837       C  0.96124490  0.27748353  0.43494233    -0.17400
C2838       C  0.93955365  0.25361401  0.44947163     0.11000
S2839       S  0.92074554  0.33055064  0.43224899    -0.32400
S2840       S  0.94729331  0.22360363  0.45529681    -0.32400
H2841       H  0.91590564  0.20115323  0.45738706     0.29000
H2842       H  0.95180106  0.35361849  0.43020817     0.29000
H2843       H  0.88706297  0.27725676  0.45952407     0.19600
H2844       H  0.98092900  0.27641076  0.42723396     0.19600
C2845       C  0.71201814  0.18564848  0.41827463    -0.06300
C2846       C  0.74420792  0.20395086  0.41439016    -0.17400
C2847       C  0.76564036  0.20463493  0.43101599     0.10900
C2848       C  0.75474344  0.18609369  0.45193727    -0.06200
C2849       C  0.72246209  0.16960308  0.45662393    -0.17400
C2850       C  0.70111269  0.16887075  0.44003245     0.11000
S2851       S  0.80633339  0.22734358  0.42318063    -0.32400
S2852       S  0.66048834  0.14403934  0.44694873    -0.32400
H2853       H  0.65257597  0.13364341  0.42312896     0.29000
H2854       H  0.81351750  0.24229541  0.44554390     0.29000
H2855       H  0.75272154  0.21692910  0.39775308     0.19600
H2856       H  0.71363455  0.15551531  0.47267362     0.19600
C2857       C  0.84142709  0.25465498  0.54434892    -0.06300
C2858       C  0.81207839  0.24279365  0.55591954    -0.17400
C2859       C  0.80604287  0.25899412  0.57355552     0.10900
C2860       C  0.82930354  0.28840795  0.57884471    -0.06200
C2861       C  0.85766523  0.30101330  0.56549570    -0.17400
C2862       C  0.86412993  0.28436619  0.54868951     0.11000
S2863       S  0.76971867  0.23964010  0.59032733    -0.32400
S2864       S  0.90213577  0.30178568  0.53409168    -0.32400
H2865       H  0.89233936  0.28567765  0.51235428     0.29000
H2866       H  0.78330742  0.24970270  0.61307812     0.29000
H2867       H  0.79461718  0.21985627  0.55267725     0.19600
H2868       H  0.87564712  0.32360269  0.56922196     0.19600
C2869       C  0.75033965  0.08642698  0.95357859    -0.06300
C2870       C  0.76203345  0.08523959  0.93042608    -0.17400
C2871       C  0.74425906  0.06259020  0.91412892     0.10900
C2872       C  0.71356272  0.04063211  0.92095578    -0.06200
C2873       C  0.70214024  0.04156281  0.94432388    -0.17400
C2874       C  0.72051384  0.06352334  0.96094764     0.11000
S2875       S  0.76207780  0.06452527  0.88465648    -0.32400
S2876       S  0.70344082  0.06261420  0.99035612    -0.32400
H2877       H  0.72955977  0.06707410  0.00332144     0.29000
H2878       H  0.73763803  0.03964663  0.87385145     0.29000
H2879       H  0.78499224  0.10272789  0.92470199     0.19600
H2880       H  0.67824585  0.02594144  0.94937673     0.19600
C2881       C  0.68876676  0.15521612  0.06611893    -0.06300
C2882       C  0.68232645  0.14860038  0.04153904    -0.17400
C2883       C  0.70426332  0.14760874  0.02551333     0.10900
C2884       C  0.73402651  0.15419476  0.03398878    -0.06200
C2885       C  0.74065961  0.16174889  0.05849597    -0.17400
C2886       C  0.71848921  0.16228068  0.07457326     0.11000
S2887       S  0.69169351  0.13595736  0.99492965    -0.32400
S2888       S  0.72857452  0.17245488  0.10590430    -0.32400
H2889       H  0.75729125  0.17296416  0.10499565     0.29000
H2890       H  0.70656721  0.11894554  0.99249756     0.29000
H2891       H  0.65940422  0.14257715  0.03505725     0.19600
H2892       H  0.76349752  0.16764110  0.06501181     0.19600
C2893       C  0.91556499  0.18197542  0.96583394    -0.06300
C2894       C  0.91275711  0.15432149  0.95994901    -0.17400
C2895       C  0.93132329  0.15150821  0.94186210     0.10900
C2896       C  0.95311226  0.17673981  0.92830867    -0.06200
C2897       C  0.95613377  0.20458158  0.93401835    -0.17400
C2898       C  0.93805768  0.20754964  0.95286412     0.11000
S2899       S  0.92569721  0.11472057  0.93702016    -0.32400
S2900       S  0.94556156  0.24452592  0.95996793    -0.32400
H2901       H  0.94344514  0.24019014  0.98531011     0.29000
H2902       H  0.95680552  0.12434378  0.93042344     0.29000
H2903       H  0.89587979  0.13444609  0.96968150     0.19600
H2904       H  0.97251060  0.22407871  0.92366159     0.19600
C2905       C  0.81098787  0.07450840  0.04977038    -0.06300
C2906       C  0.79178349  0.06599193  0.07072537    -0.17400
C2907       C  0.79017198  0.04392790  0.08641079     0.10900
C2908       C  0.80819091  0.03016413  0.08107208    -0.06200
C2909       C  0.82517448  0.03690136  0.05910145    -0.17400
C2910       C  0.82620634  0.05839323  0.04315448     0.11000
S2911       S  0.76750772  0.53618712  0.11366964    -0.32400
S2912       S  0.84842445  0.06613851  0.01497223    -0.32400
H2913       H  0.85339626  0.04161776  0.01606022     0.29000
H2914       H  0.76581934  0.50896926  0.11923139     0.29000
H2915       H  0.77993659  0.07814457  0.07590777     0.19600
H2916       H  0.83985502  0.02725714  0.05537194     0.19600
C2917       C  0.93145780  0.25563743  0.04934438    -0.06300
C2918       C  0.94863873  0.24925856  0.06610860    -0.17400
C2919       C  0.97175436  0.27131307  0.08011108     0.10900
C2920       C  0.97906642  0.30114568  0.07719475    -0.06200
C2921       C  0.96295847  0.30803018  0.05993720    -0.17400
C2922       C  0.93966213  0.28581605  0.04578367     0.11000
S2923       S  0.98930735  0.25928508  0.10259308    -0.32400
S2924       S  0.92168590  0.29768853  0.02364639    -0.32400
H2925       H  0.92370025  0.28000578  0.00497486     0.29000
H2926       H  0.49011714  0.27894297  0.12116484     0.29000
H2927       H  0.94317549  0.22651558  0.06936860     0.19600
H2928       H  0.96837199  0.33092671  0.05770398     0.19600
C2929       C  0.83647592  0.26338338  0.96428807    -0.06300
C2930       C  0.86509168  0.29003391  0.96286049    -0.17400
C2931       C  0.86884939  0.31434101  0.94890236     0.10900
C2932       C  0.84353316  0.31219177  0.93566018    -0.06200
C2933       C  0.81461309  0.28632750  0.93795498    -0.17400
C2934       C  0.81060440  0.26200633  0.95203650     0.11000
S2935       S  0.90701733  0.34705979  0.94822004    -0.32400
S2936       S  0.77265440  0.22878768  0.95197284    -0.32400
H2937       H  0.75610798  0.24193574  0.94240469     0.29000
H2938       H  0.89865793  0.36699138  0.93828399     0.29000
H2939       H  0.88490529  0.29185775  0.97240351     0.19600
H2940       H  0.79553310  0.28451496  0.92737909     0.19600
O2941       O  0.84902669  0.62067052  0.03319820    -0.81000
O2942       O  0.85807759  0.73509997  0.98308705    -0.65700
O2943       O  0.84253931  0.67130938  0.02734943    -1.12300
C2944       C  0.76825908  0.61392730  0.96745517     1.05900
O2945       O  0.80757942  0.71658751  0.98428882    -0.78900
O2946       O  0.75997598  0.66339250  0.99574085    -0.66500
Ni2947     Ni  0.87475092  0.66327692  0.03561635     1.34900
C2948       C  0.75930191  0.65541022  0.01753607     0.84600
O2949       O  0.88406599  0.73274956  0.02598071    -0.79500
O2950       O  0.90376911  0.70486188  0.03970531    -0.89700
C2951       C  0.83420630  0.73728073  0.97774992     0.84200
O2952       O  0.88943344  0.66412355  0.00334483    -0.67900
O2953       O  0.77439080  0.63860554  0.95750100    -0.87200
C2954       C  0.89593656  0.68297080  0.98638704     0.85000
C2955       C  0.90473579  0.72986862  0.03737623     1.06600
H2956       H  0.83291006  0.66832682  0.97279826     0.38400
O2957       O  0.82228812  0.67246867  0.98584319    -1.09900
O2958       O  0.77964797  0.64947069  0.02568074    -0.66500
Ni2959     Ni  0.80954722  0.64125852  0.00881692     1.26300
O2960       O  0.88555874  0.70122774  0.98636931    -0.66800
O2961       O  0.77752933  0.61186396  0.98852666    -0.79100
C2962       C  0.82017763  0.60340391  0.03770698     0.84400
O2963       O  0.79994897  0.61077260  0.03258347    -0.66200
Ni2964     Ni  0.79145799  0.67772336  0.97087164     1.27400
Ni2965     Ni  0.85290237  0.70366269  0.00523971     1.26100
H2966       H  0.83412401  0.67477552  0.04221685     0.38900
O2967       O  0.90547470  0.68327765  0.51219458    -0.81000
O2968       O  0.80337613  0.69742833  0.46956403    -0.65700
O2969       O  0.84740631  0.67653897  0.51408441    -1.12300
C2970       C  0.81145019  0.59167303  0.46351609     1.05900
O2971       O  0.76306181  0.65330763  0.47610845    -0.78900
O2972       O  0.76503459  0.61011037  0.50097356    -0.66500
Ni2973     Ni  0.88712261  0.70568262  0.52479165     1.34900
C2974       C  0.77896440  0.60651413  0.51852783     0.84600
O2975       O  0.83211697  0.72183734  0.51125082    -0.79500
O2976       O  0.86970678  0.72917394  0.53753914    -0.89700
C2977       C  0.77485948  0.67903022  0.46657831     0.84200
O2978       O  0.90290876  0.73081166  0.49681496    -0.67900
O2979       O  0.78833304  0.59589156  0.46136694    -0.87200
C2980       C  0.89132924  0.73095190  0.47657423     0.85000
C2981       C  0.84855017  0.73429760  0.52978366     1.06600
H2982       H  0.83070804  0.65951880  0.45945954     0.38400
O2983       O  0.81979479  0.65368137  0.47499310    -1.09900
O2984       O  0.80838666  0.61661452  0.51812367    -0.66500
Ni2985     Ni  0.84269952  0.64253273  0.49602670     1.26300
O2986       O  0.86271862  0.71371686  0.47189067    -0.66800
O2987       O  0.83523667  0.60837789  0.47641394    -0.79100
C2988       C  0.89760646  0.65764522  0.52055168     0.84400
O2989       O  0.87013666  0.63610670  0.51693256    -0.66200
Ni2990     Ni  0.77742531  0.62560345  0.46906371     1.27400
Ni2991     Ni  0.82638775  0.68841979  0.49219520     1.26100
H2992       H  0.83441338  0.66937773  0.52861271     0.38900
N2993       N  0.88940037  0.48922787  0.71171512    -0.36700
N2994       N  0.92298928  0.54433053  0.74167687    -0.57300
N2995       N  0.91281532  0.50695030  0.78221454    -0.36700
N2996       N  0.88323506  0.95290396  0.75264410    -0.57300
C2997       C  0.90520029  0.51125899  0.69520579     0.26800
C2998       C  0.88491538  0.96309359  0.70102893     0.26800
C2999       C  0.93521576  0.53421995  0.78947405     0.26800
C3000       C  0.91603148  0.98612203  0.79533396     0.26800
C3001       C  0.91313414  0.55248340  0.72205830     0.35500
C3002       C  0.92317874  0.56153811  0.76032754     0.35500
C3003       C  0.86361455  0.93163029  0.73738169     0.35500
C3004       C  0.87588858  0.94110538  0.77525664     0.35500
C3005       C  0.90966008  0.49905901  0.67397309    -0.22000
C3006       C  0.89766632  0.96861689  0.67769642    -0.22000
C3007       C  0.95310140  0.53044261  0.80674240    -0.22000
C3008       C  0.94072204  0.00035450  0.81089757    -0.22000
C3009       C  0.90680423  0.57499969  0.72825204    -0.23100
C3010       C  0.91141136  0.57944316  0.75287158    -0.23100
C3011       C  0.84328840  0.90625422  0.75041241    -0.23100
C3012       C  0.85138245  0.91208209  0.77436674    -0.23100
C3013       C  0.91366680  0.54160560  0.69863862    -0.18400
C3014       C  0.86646566  0.93450979  0.71177498    -0.18400
C3015       C  0.89336845  0.95556038  0.79597325    -0.18400
C3016       C  0.93559056  0.56115869  0.78313893    -0.18400
H3017       H  0.92033604  0.51032310  0.65700515     0.14500
H3018       H  0.89690415  0.95253615  0.66470661     0.14500
H3019       H  0.97209548  0.54679560  0.81709469     0.14500
H3020       H  0.94824157  0.99095942  0.82489033     0.14500
H3021       H  0.89913620  0.58680076  0.71677052     0.12800
H3022       H  0.90709698  0.59451485  0.76374667     0.12800
H3023       H  0.82505631  0.88545105  0.74341753     0.12800
H3024       H  0.84087275  0.89633797  0.78921320     0.12800
H3025       H  0.88021344  0.49154608  0.72827969     0.26000
H3026       H  0.89387505  0.50266037  0.77151951     0.26000
N3027       N  0.60836905  0.60799696  0.71929886    -0.36700
N3028       N  0.62337615  0.57976306  0.75664440    -0.57300
N3029       N  0.58294125  0.59103699  0.79029686    -0.36700
N3030       N  0.57163214  0.62352206  0.75226682    -0.57300
C3031       C  0.63345123  0.60720979  0.70996051     0.26800
C3032       C  0.60607004  0.62970404  0.70762718     0.26800
C3033       C  0.59819274  0.58279239  0.80567868     0.26800
C3034       C  0.57108753  0.60543171  0.80334114     0.26800
C3035       C  0.62848221  0.56759772  0.73646021     0.35500
C3036       C  0.61545603  0.55950745  0.77461665     0.35500
C3037       C  0.55995615  0.62249289  0.73007686     0.35500
C3038       C  0.54776410  0.61523523  0.76842199     0.35500
C3039       C  0.64842392  0.62987090  0.69287818    -0.22000
C3040       C  0.63110108  0.64418539  0.69144439    -0.22000
C3041       C  0.59609188  0.59197153  0.82899297    -0.22000
C3042       C  0.57875692  0.60622704  0.82753836    -0.22000
C3043       C  0.62294750  0.53912663  0.74161470    -0.23100
C3044       C  0.61529453  0.53440741  0.76603094    -0.23100
C3045       C  0.52829045  0.61245083  0.73207780    -0.23100
C3046       C  0.52075099  0.60818947  0.75650275    -0.23100
C3047       C  0.63891313  0.58312194  0.71401784    -0.18400
C3048       C  0.57863698  0.63194076  0.70858583    -0.18400
C3049       C  0.55107426  0.61484120  0.79376157    -0.18400
C3050       C  0.61087314  0.56459295  0.79907647    -0.18400
H3051       H  0.66856340  0.63442108  0.68164466     0.14500
H3052       H  0.63527003  0.66187029  0.67885096     0.14500
H3053       H  0.60507064  0.58785459  0.84541197     0.14500
H3054       H  0.57175537  0.61517359  0.84266603     0.14500
H3055       H  0.62411595  0.52341495  0.72920729     0.12800
H3056       H  0.60895867  0.51459135  0.77645711     0.12800
H3057       H  0.51226831  0.60823994  0.71752849     0.12800
H3058       H  0.49775547  0.59881128  0.76438326     0.12800
H3059       H  0.59059916  0.59122072  0.72984988     0.26000
H3060       H  0.57804633  0.58430627  0.77231245     0.26000
N3061       N  0.50900227  0.88874405  0.78437302    -0.36700
N3062       N  0.55628700  0.90363929  0.74735490    -0.57300
N3063       N  0.50936335  0.87835091  0.71046353    -0.36700
N3064       N  0.96140396  0.86389341  0.74814099    -0.57300
C3065       C  0.53508445  0.90969992  0.79520728     0.26800
C3066       C  0.98433892  0.88825258  0.79567364     0.26800
C3067       C  0.53508805  0.89496767  0.69635289     0.26800
C3068       C  0.98433364  0.87122224  0.69671961     0.26800
C3069       C  0.57332112  0.90748050  0.76723977     0.35500
C3070       C  0.57457586  0.90659628  0.72787357     0.35500
C3071       C  0.94328734  0.85389870  0.76850922     0.35500
C3072       C  0.94335556  0.84864687  0.72938741     0.35500
C3073       C  0.52689022  0.92348757  0.81326747    -0.22000
C3074       C  0.99486919  0.90953971  0.81375123    -0.22000
C3075       C  0.52609418  0.89659543  0.67295912    -0.22000
C3076       C  0.99426210  0.88184382  0.67323321    -0.22000
C3077       C  0.60194440  0.91063161  0.76046030    -0.23100
C3078       C  0.60338177  0.91175498  0.73546816    -0.23100
C3079       C  0.91372602  0.83151805  0.76277779    -0.23100
C3080       C  0.91351074  0.82876222  0.73790372    -0.23100
C3081       C  0.56582596  0.91531122  0.78999417    -0.18400
C3082       C  0.95260511  0.86758979  0.79142708    -0.18400
C3083       C  0.95271831  0.85520438  0.70467984    -0.18400
C3084       C  0.56653391  0.90897074  0.70387921    -0.18400
H3085       H  0.54231995  0.94113100  0.82513006     0.14500
H3086       H  0.98091673  0.91479710  0.82603144     0.14500
H3087       H  0.54098151  0.90747213  0.65726189     0.14500
H3088       H  0.98010361  0.87928609  0.65771803     0.14500
H3089       H  0.62109073  0.91516977  0.77216900     0.12800
H3090       H  0.62384480  0.91703075  0.72453082     0.12800
H3091       H  0.89396863  0.81946066  0.77504508     0.12800
H3092       H  0.89347210  0.81413580  0.72738132     0.12800
H3093       H  0.50781397  0.87290336  0.77201583     0.26000
H3094       H  0.50873866  0.87121463  0.72817523     0.26000
C3095       C  0.98665936  0.65183098  0.58416801     0.02100
C3096       C  0.51985395  0.67127748  0.58599346     0.02100
C3097       C  0.53551836  0.66628256  0.60485681    -0.18400
C3098       C  0.51959966  0.64444768  0.62275268     0.02100
C3099       C  0.98639422  0.62567524  0.62146712     0.02100
C3100       C  0.97103134  0.62915712  0.60160806    -0.18400
H3101       H  0.94612291  0.61457503  0.60010901     0.04200
H3102       H  0.56054466  0.68027196  0.60611977     0.04200
C3103       C  0.67835405  0.99843760  0.59395782     0.02100
C3104       C  0.69653815  0.52907274  0.59575525     0.02100
C3105       C  0.69148589  0.54331573  0.61577608    -0.18400
C3106       C  0.66954172  0.52719117  0.63439438     0.02100
C3107       C  0.65174231  0.99600168  0.63283992     0.02100
C3108       C  0.65580775  0.98238253  0.61205992    -0.18400
H3109       H  0.64204696  0.95837135  0.61043607     0.04200
H3110       H  0.70477162  0.56738913  0.61685483     0.04200
C3111       C  0.83628660  0.85346971  0.91675652     0.02100
C3112       C  0.84829913  0.83363049  0.91568853     0.02100
C3113       C  0.86561578  0.83387029  0.89497925    -0.18400
C3114       C  0.87448444  0.85542530  0.87647268     0.02100
C3115       C  0.86571918  0.87780441  0.87915691     0.02100
C3116       C  0.84594153  0.87573352  0.89882265    -0.18400
H3117       H  0.83785960  0.89173007  0.90030075     0.04200
H3118       H  0.87208897  0.81674383  0.89329243     0.04200
C3119       C  0.80520768  0.81343713  0.60430069     0.02100
C3120       C  0.82841906  0.80533041  0.60004921     0.02100
C3121       C  0.85212313  0.81362087  0.61683567    -0.18400
C3122       C  0.85441705  0.83042895  0.63744236     0.02100
C3123       C  0.83125007  0.83868553  0.64225211     0.02100
C3124       C  0.80698098  0.82982856  0.62542307    -0.18400
H3125       H  0.78953320  0.83644020  0.62842602     0.04200
H3126       H  0.86976498  0.80726217  0.61349671     0.04200
C3127       C  0.69176114  0.52015032  0.90253426     0.02100
C3128       C  0.68368316  0.98971225  0.90129241     0.02100
C3129       C  0.66442851  0.97230475  0.88248532    -0.18400
C3130       C  0.65189900  0.98392495  0.86590496     0.02100
C3131       C  0.65975052  0.51409396  0.86736954     0.02100
C3132       C  0.67927077  0.53167629  0.88590344    -0.18400
H3133       H  0.68493112  0.55473388  0.88738733     0.04200
H3134       H  0.65844064  0.94915589  0.88113827     0.04200
C3135       C  0.96959952  0.67398116  0.90631518     0.02100
C3136       C  0.50241108  0.68361422  0.90507507     0.02100
C3137       C  0.51469836  0.67511593  0.88507309    -0.18400
C3138       C  0.49563979  0.65845549  0.86564354     0.02100
C3139       C  0.96438305  0.65129666  0.86678205     0.02100
C3140       C  0.95100601  0.65763064  0.88685356    -0.18400
H3141       H  0.92605507  0.64899982  0.88766766     0.04200
H3142       H  0.53908989  0.68149384  0.88519079     0.04200
O3143       O  0.73170008  0.84536476  0.53375588    -0.81000
O3144       O  0.62517484  0.86068509  0.48429434    -0.65700
O3145       O  0.67359494  0.84220272  0.52779792    -1.12300
C3146       C  0.65363763  0.76797718  0.46750236     1.05900
O3147       O  0.59173387  0.81291383  0.48612772    -0.78900
O3148       O  0.59594329  0.76520693  0.49795735    -0.66500
Ni3149     Ni  0.71484605  0.87188524  0.53550267     1.34900
C3150       C  0.60508542  0.76378528  0.51891708     0.84600
O3151       O  0.65403892  0.88502909  0.52722279    -0.79500
O3152       O  0.70305606  0.90196210  0.53905367    -0.89700
C3153       C  0.59889871  0.83865619  0.47870609     0.84200
O3154       O  0.72843116  0.88359082  0.50292834    -0.67900
O3155       O  0.63357380  0.77404863  0.45898257    -0.87200
C3156       C  0.71614939  0.89139956  0.48661496     0.85000
C3157       C  0.67842407  0.90395032  0.53830416     1.06600
H3158       H  0.66541489  0.83199503  0.47289104     0.38400
O3159       O  0.65097621  0.82280097  0.48640539    -1.09900
O3160       O  0.63241589  0.78208921  0.52604974    -0.66500
Ni3161     Ni  0.67054640  0.80973984  0.50863946     1.26300
O3162       O  0.68719863  0.88334514  0.48733920    -0.66800
O3163       O  0.66786315  0.77840662  0.48748358    -0.79100
C3164       C  0.71935137  0.81779332  0.53863351     0.84400
O3165       O  0.69195223  0.79930803  0.53206442    -0.66200
Ni3166     Ni  0.61318491  0.79403925  0.47258431     1.27400
Ni3167     Ni  0.65129330  0.85374881  0.50619646     1.26100
H3168       H  0.66162902  0.83471371  0.54278238     0.38900
O3169       O  0.69194592  0.78648113  0.01817288    -0.81000
O3170       O  0.70061871  0.89471670  0.97008580    -0.65700
O3171       O  0.67823749  0.83212034  0.01634917    -1.12300
C3172       C  0.59636043  0.77690777  0.96351957     1.05900
O3173       O  0.65169698  0.88517964  0.96987927    -0.78900
O3174       O  0.61217163  0.84245128  0.99968606    -0.66500
Ni3175     Ni  0.70915876  0.82611892  0.03071504     1.34900
C3176       C  0.60471602  0.82311301  0.01625787     0.84600
O3177       O  0.72347509  0.89278821  0.01383963    -0.79500
O3178       O  0.72717319  0.86533685  0.04403023    -0.89700
C3179       C  0.68041074  0.90215771  0.96495340     0.84200
O3180       O  0.74013792  0.83994668  0.00507025    -0.67900
O3181       O  0.59615704  0.80144543  0.96291927    -0.87200
C3182       C  0.74015514  0.84812859  0.98336547     0.85000
C3183       C  0.73293186  0.89016254  0.03466182     1.06600
H3184       H  0.66583027  0.83084071  0.96016399     0.38400
O3185       O  0.65772678  0.83428849  0.97507624    -1.09900
O3186       O  0.61458635  0.80439426  0.01605430    -0.66500
Ni3187     Ni  0.64706738  0.80162131  0.99683844     1.26300
O3188       O  0.72038927  0.85533632  0.97607137    -0.66800
O3189       O  0.61600607  0.77316148  0.97561670    -0.79100
C3190       C  0.66435933  0.76602846  0.02331068     0.84400
O3191       O  0.64132780  0.76974428  0.01844595    -0.66200
Ni3192     Ni  0.62572778  0.84283772  0.96725567     1.27400
Ni3193     Ni  0.69105944  0.86382012  0.99361028     1.26100
H3194       H  0.66789954  0.83619766  0.02964801     0.38900
N3195       N  0.98935487  0.61761288  0.21529442    -0.36700
N3196       N  0.53925790  0.63412982  0.24739620    -0.57300
N3197       N  0.99321720  0.60397600  0.28661992    -0.36700
N3198       N  0.94270681  0.58897402  0.25349123    -0.57300
C3199       C  0.51383190  0.63643955  0.20125713     0.26800
C3200       C  0.96365600  0.61470236  0.20472114     0.26800
C3201       C  0.51935778  0.61831605  0.29935601     0.26800
C3202       C  0.96870077  0.59234738  0.30256054     0.26800
C3203       C  0.55542863  0.63866024  0.22621597     0.35500
C3204       C  0.55847727  0.63616706  0.26520625     0.35500
C3205       C  0.92480838  0.57823901  0.23362667     0.35500
C3206       C  0.92613019  0.57092395  0.27233051     0.35500
C3207       C  0.50393146  0.64667671  0.18206801    -0.22000
C3208       C  0.97222515  0.63323573  0.18446296    -0.22000
C3209       C  0.51153084  0.61610548  0.32382752    -0.22000
C3210       C  0.97984015  0.59958914  0.32602256    -0.22000
C3211       C  0.58517655  0.64377203  0.23074059    -0.23100
C3212       C  0.58739787  0.64355033  0.25546143    -0.23100
C3213       C  0.89670385  0.55345557  0.23994086    -0.23100
C3214       C  0.89691404  0.54973880  0.26449059    -0.23100
C3215       C  0.54383269  0.63998285  0.20325668    -0.18400
C3216       C  0.93325740  0.59138862  0.21014353    -0.18400
C3217       C  0.93704739  0.57331652  0.29642346    -0.18400
C3218       C  0.55033542  0.63125527  0.29014399    -0.18400
H3219       H  0.51811087  0.66101251  0.16725431     0.14500
H3220       H  0.95686612  0.63482484  0.17157415     0.14500
H3221       H  0.52716629  0.62490391  0.33891776     0.14500
H3222       H  0.96712920  0.59276366  0.34311594     0.14500
H3223       H  0.60385255  0.64801331  0.21799617     0.12800
H3224       H  0.60806601  0.64866562  0.26520214     0.12800
H3225       H  0.87766880  0.53944686  0.22831822     0.12800
H3226       H  0.87762486  0.53271878  0.27495618     0.12800
H3227       H  0.98957505  0.60279804  0.22792559     0.26000
H3228       H  0.99233208  0.59871716  0.26835910     0.26000
N3229       N  0.89125107  0.88983168  0.28350528    -0.36700
N3230       N  0.92644667  0.88051619  0.24581255    -0.57300
N3231       N  0.90374284  0.90833007  0.21252416    -0.36700
N3232       N  0.86726986  0.91620968  0.25100517    -0.57300
C3233       C  0.89872445  0.87061440  0.29382930     0.26800
C3234       C  0.86781747  0.88918076  0.29707098     0.26800
C3235       C  0.91458214  0.89502827  0.19698383     0.26800
C3236       C  0.88480780  0.91499423  0.19989831     0.26800
C3237       C  0.94055505  0.87708277  0.26528979     0.35500
C3238       C  0.94532690  0.88487068  0.22640367     0.35500
C3239       C  0.85872058  0.92353083  0.27227655     0.35500
C3240       C  0.86604288  0.93410574  0.23379629     0.35500
C3241       C  0.87890009  0.85664251  0.31360423    -0.22000
C3242       C  0.85956170  0.86867170  0.31580609    -0.22000
C3243       C  0.90222594  0.89300439  0.17423831    -0.22000
C3244       C  0.88334129  0.90556007  0.17609202    -0.22000
C3245       C  0.96872944  0.87926758  0.25821078    -0.23100
C3246       C  0.97141640  0.88366015  0.23338914    -0.23100
C3247       C  0.85112019  0.94561398  0.26845395    -0.23100
C3248       C  0.85612914  0.95260033  0.24410588    -0.23100
C3249       C  0.92687273  0.87054021  0.28887547    -0.18400
C3250       C  0.85716946  0.90977368  0.29481599    -0.18400
C3251       C  0.87184914  0.93235471  0.20874677    -0.18400
C3252       C  0.93777328  0.88763270  0.20237318    -0.18400
H3253       H  0.87985811  0.84105527  0.32614531     0.14500
H3254       H  0.84239694  0.86394032  0.33016166     0.14500
H3255       H  0.90706289  0.88424959  0.15784618     0.14500
H3256       H  0.87075427  0.90831330  0.16140142     0.14500
H3257       H  0.98541015  0.87755905  0.26952893     0.12800
H3258       H  0.99035193  0.88592559  0.22178340     0.12800
H3259       H  0.84309204  0.95587723  0.28177456     0.12800
H3260       H  0.85274005  0.96931815  0.23509838     0.12800
H3261       H  0.90521249  0.90645619  0.27102006     0.26000
H3262       H  0.91212054  0.91616754  0.22974555     0.26000
C3263       C  0.81268660  0.49838878  0.40616576     0.02100
C3264       C  0.80263751  0.96810600  0.41106453     0.02100
C3265       C  0.81016590  0.95252248  0.39379793    -0.18400
C3266       C  0.83042193  0.96704777  0.37395382     0.02100
C3267       C  0.84234494  0.49840149  0.36971026     0.02100
C3268       C  0.82985383  0.51204563  0.38486438    -0.18400
H3269       H  0.83471143  0.53440872  0.38080364     0.04200
H3270       H  0.80071822  0.92874445  0.39617400     0.04200
N3271       N  0.61986074  0.00837878  0.28780859    -0.36700
N3272       N  0.63965115  0.54872416  0.24628217    -0.57300
N3273       N  0.61421083  0.99873737  0.21381226    -0.36700
N3274       N  0.59313037  0.95795232  0.25518293    -0.57300
C3275       C  0.62734643  0.53464204  0.29860946     0.26800
C3276       C  0.60036985  0.98646599  0.30347757     0.26800
C3277       C  0.61635732  0.52061915  0.19870586     0.26800
C3278       C  0.59531553  0.97225148  0.20334019     0.26800
C3279       C  0.65676325  0.56785384  0.26382817     0.35500
C3280       C  0.64946819  0.56359442  0.22485396     0.35500
C3281       C  0.58739952  0.94304152  0.27656535     0.35500
C3282       C  0.58966515  0.93849860  0.23730658     0.35500
C3283       C  0.61287435  0.52928153  0.32132009    -0.22000
C3284       C  0.59635448  0.99950807  0.32437449    -0.22000
C3285       C  0.59917862  0.50750049  0.17809430    -0.22000
C3286       C  0.58545861  0.97700936  0.18129279    -0.22000
C3287       C  0.67873865  0.59463157  0.25335218    -0.23100
C3288       C  0.67305558  0.59243707  0.22888319    -0.23100
C3289       C  0.57948197  0.91374389  0.27207273    -0.23100
C3290       C  0.58247996  0.91132322  0.24747729    -0.23100
C3291       C  0.64820248  0.56344708  0.28886559    -0.18400
C3292       C  0.58727558  0.95519059  0.29978281    -0.18400
C3293       C  0.58901071  0.94401561  0.21209768    -0.18400
C3294       C  0.63504714  0.55186356  0.20237103    -0.18400
H3295       H  0.61370203  0.54532602  0.33436640     0.14500
H3296       H  0.58375130  0.98900151  0.34098750     0.14500
H3297       H  0.59724259  0.51816246  0.16190680     0.14500
H3298       H  0.57059351  0.96045970  0.16841338     0.14500
H3299       H  0.69506773  0.61465577  0.26262781     0.12800
H3300       H  0.68445693  0.61051467  0.21595877     0.12800
H3301       H  0.57197048  0.89559624  0.28488117     0.12800
H3302       H  0.57843686  0.89127138  0.23824727     0.12800
H3303       H  0.62999983  0.00563379  0.27197358     0.26000
H3304       H  0.62748242  0.00161550  0.22904021     0.26000
C3305       C  0.81691589  0.51531458  0.09979337     0.02100
C3306       C  0.80598789  0.98442912  0.10033109     0.02100
C3307       C  0.81583774  0.97250719  0.11879528    -0.18400
C3308       C  0.83619824  0.99071553  0.13667912     0.02100
C3309       C  0.84834305  0.52172879  0.13525978     0.02100
C3310       C  0.83735697  0.53344225  0.11764475    -0.18400
H3311       H  0.84558883  0.55717256  0.11738548     0.04200
H3312       H  0.80778438  0.94881625  0.11912652     0.04200
C3313       C  0.69096022  0.68187379  0.39798665     0.02100
C3314       C  0.66813058  0.69077121  0.39914077     0.02100
C3315       C  0.64790773  0.68381798  0.37965423    -0.18400
C3316       C  0.64784692  0.66605297  0.36029068     0.02100
C3317       C  0.67021583  0.65626325  0.35934754     0.02100
C3318       C  0.69272534  0.66629044  0.37754496    -0.18400
H3319       H  0.71098757  0.66048666  0.37655835     0.04200
H3320       H  0.63099292  0.69139643  0.38000403     0.04200
C3321       C  0.64738166  0.66663297  0.08297019     0.02100
C3322       C  0.66317533  0.65003096  0.08347802     0.02100
C3323       C  0.65516011  0.62831899  0.10173738    -0.18400
C3324       C  0.63512843  0.62522145  0.12141470     0.02100
C3325       C  0.62019129  0.64274951  0.12116622     0.02100
C3326       C  0.62559079  0.66211888  0.10156639    -0.18400
H3327       H  0.61416103  0.67543790  0.10165968     0.04200
H3328       H  0.66645998  0.61489887  0.10143830     0.04200
C3329       C  0.51087999  0.84544023  0.41561076     0.02100
C3330       C  0.97862126  0.82478298  0.41123221     0.02100
C3331       C  0.96571820  0.82765865  0.38952017    -0.18400
C3332       C  0.98341460  0.84999669  0.37235529     0.02100
C3333       C  0.51515026  0.87119729  0.37723372     0.02100
C3334       C  0.52832434  0.86811063  0.39851917    -0.18400
H3335       H  0.55287781  0.88310652  0.40149733     0.04200
H3336       H  0.94133960  0.81252050  0.38606196     0.04200
C3337       C  0.53165493  0.83400383  0.09633273     0.02100
C3338       C  0.99925751  0.82490038  0.09431782     0.02100
C3339       C  0.98515042  0.83556162  0.11067182    -0.18400
C3340       C  0.00072693  0.85230265  0.13093951     0.02100
C3341       C  0.53251965  0.85951755  0.13456886     0.02100
C3342       C  0.54765266  0.85125738  0.11658843    -0.18400
H3343       H  0.57214643  0.85844540  0.11832568     0.04200
H3344       H  0.96100861  0.82947259  0.10819141     0.04200
C3345       C  0.57054238  0.93424988  0.32075554    -0.06300
C3346       C  0.54508890  0.93503451  0.33196293    -0.17400
C3347       C  0.53073403  0.91847851  0.35301187     0.10900
C3348       C  0.53553197  0.89467590  0.35927459    -0.06200
C3349       C  0.56067132  0.89335111  0.34817200    -0.17400
C3350       C  0.57968435  0.91435866  0.33043844     0.11000
S3351       S  0.51216847  0.93278794  0.37329474    -0.32400
S3352       S  0.61547976  0.91500867  0.32179502    -0.32400
H3353       H  0.63108209  0.94430493  0.31269568     0.29000
H3354       H  0.51075791  0.91617103  0.39390795     0.29000
H3355       H  0.53820658  0.95070759  0.32562758     0.19600
H3356       H  0.56622172  0.87655485  0.35402414     0.19600
C3357       C  0.57846350  0.91912040  0.19395138    -0.06300
C3358       C  0.55032529  0.89251017  0.19798079    -0.17400
C3359       C  0.53786426  0.87058461  0.18015435     0.10900
C3360       C  0.55033997  0.87719696  0.15613195    -0.06200
C3361       C  0.57956133  0.90279776  0.15243947    -0.17400
C3362       C  0.59454505  0.92266187  0.17144049     0.11000
S3363       S  0.00742601  0.83465980  0.18960641    -0.32400
S3364       S  0.63377745  0.95249287  0.16559984    -0.32400
H3365       H  0.64251842  0.95699300  0.19006790     0.29000
H3366       H  0.01305567  0.81936655  0.17076816     0.29000
H3367       H  0.53797944  0.88845435  0.21520805     0.19600
H3368       H  0.59066693  0.90769649  0.13458397     0.19600
C3369       C  0.65876970  0.59006457  0.30530275    -0.06300
C3370       C  0.67042698  0.58953333  0.32825326    -0.17400
C3371       C  0.67299823  0.60972652  0.34637659     0.10900
C3372       C  0.66976098  0.63480883  0.34042965    -0.06200
C3373       C  0.66359276  0.63798692  0.31611620    -0.17400
C3374       C  0.65466536  0.61458982  0.29964068     0.11000
S3375       S  0.67588760  0.59937136  0.37704667    -0.32400
S3376       S  0.63427351  0.61565127  0.27335763    -0.32400
H3377       H  0.61163861  0.58530114  0.27450035     0.29000
H3378       H  0.65332280  0.60592092  0.38655137     0.29000
H3379       H  0.67380511  0.57103174  0.33305777     0.19600
H3380       H  0.66231563  0.65738706  0.31054097     0.19600
C3381       C  0.63438720  0.60678325  0.14284219    -0.06300
C3382       C  0.66295512  0.61080537  0.15140826    -0.17400
C3383       C  0.66413564  0.59231546  0.16949921     0.10900
C3384       C  0.63655753  0.57261739  0.18261640    -0.06200
C3385       C  0.60833463  0.57017440  0.17515056    -0.17400
C3386       C  0.60674818  0.58378856  0.15371345     0.11000
S3387       S  0.70098447  0.59350327  0.17316725    -0.32400
S3388       S  0.57020338  0.56491529  0.13843126    -0.32400
H3389       H  0.58277166  0.57457216  0.11490714     0.29000
H3390       H  0.68892444  0.56501864  0.18353003     0.29000
H3391       H  0.68458672  0.62713851  0.14274728     0.19600
H3392       H  0.58676851  0.55415026  0.18416832     0.19600
C3393       C  0.96761412  0.85302697  0.35083514    -0.06300
C3394       C  0.95620702  0.87284503  0.35230774    -0.17400
C3395       C  0.94702935  0.88156827  0.33162010     0.10900
C3396       C  0.94276106  0.86565126  0.30973316    -0.06200
C3397       C  0.95121089  0.84332901  0.30883438    -0.17400
C3398       C  0.96474454  0.83769177  0.32896954     0.11000
S3399       S  0.44346539  0.91497532  0.33391035    -0.32400
S3400       S  0.97723107  0.81034364  0.32705859    -0.32400
H3401       H  0.97294111  0.80541817  0.30193510     0.29000
H3402       H  0.95198128  0.92375930  0.30988692     0.29000
H3403       H  0.45666900  0.88379687  0.36950199     0.19600
H3404       H  0.94728125  0.83046285  0.29242855     0.19600
C3405       C  0.98310930  0.86141996  0.14797384    -0.06300
C3406       C  0.99530441  0.89177857  0.15324464    -0.17400
C3407       C  0.98067157  0.90129976  0.17029051     0.10900
C3408       C  0.95295533  0.88000550  0.18223644    -0.06200
C3409       C  0.93979311  0.84998337  0.17600504    -0.17400
C3410       C  0.95438698  0.84036615  0.15916532     0.11000
S3411       S  0.99931100  0.94065790  0.17649685    -0.32400
S3412       S  0.93581083  0.80066121  0.15435078    -0.32400
H3413       H  0.96312144  0.79924946  0.15000256     0.29000
H3414       H  0.97395954  0.94124254  0.18786940     0.29000
H3415       H  0.51738105  0.90815993  0.14436813     0.19600
H3416       H  0.91840137  0.83369581  0.18507018     0.19600
C3417       C  0.83591097  0.94785481  0.35687387    -0.06300
C3418       C  0.81217619  0.93040644  0.34067856    -0.17400
C3419       C  0.81764968  0.91613195  0.32107314     0.10900
C3420       C  0.84764920  0.91957149  0.31738318    -0.06200
C3421       C  0.87049133  0.93490191  0.33484463    -0.17400
C3422       C  0.86482930  0.94873545  0.35468277     0.11000
S3423       S  0.78587000  0.89508209  0.30093643    -0.32400
S3424       S  0.89565025  0.46869925  0.37581163    -0.32400
H3425       H  0.87644567  0.46768238  0.39539439     0.29000
H3426       H  0.79721357  0.87692239  0.29142816     0.29000
H3427       H  0.78969450  0.92918049  0.34262053     0.19600
H3428       H  0.89341773  0.93725355  0.33238638     0.19600
C3429       C  0.86346842  0.94873737  0.19090732    -0.06300
C3430       C  0.83257214  0.94305461  0.19041254    -0.17400
C3431       C  0.82352993  0.95761550  0.17379074     0.10900
C3432       C  0.84518128  0.97670201  0.15601704    -0.06200
C3433       C  0.87561382  0.98136791  0.15591945    -0.17400
C3434       C  0.88545758  0.96905465  0.17383618     0.11000
S3435       S  0.78406576  0.95078844  0.17614132    -0.32400
S3436       S  0.92644422  0.98062743  0.17397896    -0.32400
H3437       H  0.92795765  0.97731455  0.19916699     0.29000
H3438       H  0.79035423  0.97861076  0.16697325     0.29000
H3439       H  0.81547178  0.92748339  0.20334278     0.19600
H3440       H  0.89334806  0.49434422  0.14079585     0.19600
C3441       C  0.91442511  0.55399116  0.31587771    -0.06300
C3442       C  0.90832611  0.56675656  0.33624166    -0.17400
C3443       C  0.88887458  0.54886040  0.35537979     0.10900
C3444       C  0.86781536  0.51791895  0.35128358    -0.06200
C3445       C  0.87148663  0.00586352  0.32947979    -0.17400
C3446       C  0.89829485  0.52278490  0.31418199     0.11000
S3447       S  0.89495655  0.56579379  0.38513465    -0.32400
S3448       S  0.90845046  0.00190236  0.29323510    -0.32400
H3449       H  0.93989653  0.02393332  0.29052725     0.29000
H3450       H  0.92068198  0.59356670  0.37875324     0.29000
H3451       H  0.92060780  0.59072826  0.33798606     0.19600
H3452       H  0.85529360  0.98377334  0.32381933     0.19600
C3453       C  0.87081394  0.54238269  0.15286700    -0.06300
C3454       C  0.85975783  0.55202418  0.17258915    -0.17400
C3455       C  0.88014870  0.57096725  0.19010361     0.10900
C3456       C  0.91155418  0.57745771  0.18949798    -0.06200
C3457       C  0.92261215  0.56891168  0.16896950    -0.17400
C3458       C  0.90310475  0.55341853  0.14994015     0.11000
S3459       S  0.86485796  0.58648002  0.21225772    -0.32400
S3460       S  0.92118812  0.54966648  0.12228051    -0.32400
H3461       H  0.89735024  0.54532544  0.10653976     0.29000
H3462       H  0.89374663  0.61103394  0.21809166     0.29000
H3463       H  0.83523817  0.54530090  0.17400691     0.19600
H3464       H  0.94680928  0.57466882  0.16756383     0.19600
C3465       C  0.62302029  0.65733224  0.34215589    -0.06300
C3466       C  0.60128769  0.62709559  0.33916006    -0.17400
C3467       C  0.57851664  0.61791955  0.32148160     0.10900
C3468       C  0.57574669  0.63950223  0.30773047    -0.06200
C3469       C  0.59711725  0.66974078  0.31098221    -0.17400
C3470       C  0.62117563  0.67885497  0.32760488     0.11000
S3471       S  0.55420095  0.57844878  0.31697758    -0.32400
S3472       S  0.65029607  0.71777203  0.32924178    -0.32400
H3473       H  0.63862746  0.72791432  0.31068983     0.29000
H3474       H  0.54951835  0.58035378  0.29209721     0.29000
H3475       H  0.60286064  0.61049554  0.35006236     0.19600
H3476       H  0.59505598  0.68612310  0.30018783     0.19600
C3477       C  0.56229728  0.64275721  0.18058151    -0.06300
C3478       C  0.59317125  0.66614407  0.17803216    -0.17400
C3479       C  0.61296756  0.66584443  0.15957539     0.10900
C3480       C  0.60079230  0.64362418  0.14163263    -0.06200
C3481       C  0.56871531  0.62396359  0.14161386    -0.17400
C3482       C  0.54996413  0.62143716  0.16177955     0.11000
S3483       S  0.65323023  0.69470643  0.15962388    -0.32400
S3484       S  0.51158268  0.58910910  0.16299977    -0.32400
H3485       H  0.51223501  0.58337215  0.18786984     0.29000
H3486       H  0.66545951  0.67761796  0.14939331     0.29000
H3487       H  0.60249503  0.68366933  0.19142565     0.19600
H3488       H  0.55855739  0.60911342  0.12643924     0.19600
C3489       C  0.66036241  0.73880558  0.03598158    -0.06300
C3490       C  0.68418044  0.74224138  0.05153136    -0.17400
C3491       C  0.68114290  0.71893974  0.06630956     0.10900
C3492       C  0.65424141  0.69066206  0.06496797    -0.06200
C3493       C  0.63095341  0.68669027  0.04867120    -0.17400
C3494       C  0.63374314  0.71026203  0.03414203     0.11000
S3495       S  0.71144630  0.72762274  0.08776412    -0.32400
S3496       S  0.60273277  0.70233984  0.01361244    -0.32400
H3497       H  0.62250995  0.72065189  0.99473721     0.29000
H3498       H  0.69156609  0.71016985  0.10689789     0.29000
H3499       H  0.70476346  0.76389071  0.05333931     0.19600
H3500       H  0.61005265  0.66514337  0.04768078     0.19600
C3501       C  0.58392248  0.82318470  0.03642166    -0.06300
C3502       C  0.58624169  0.81410202  0.05997064    -0.17400
C3503       C  0.56907936  0.81657000  0.07982334     0.10900
C3504       C  0.54914168  0.82855277  0.07618050    -0.06200
C3505       C  0.54625590  0.83679409  0.05256122    -0.17400
C3506       C  0.56267965  0.83378094  0.03271682     0.11000
S3507       S  0.57242220  0.80381477  0.10951536    -0.32400
S3508       S  0.55530532  0.84309316  0.00278679    -0.32400
H3509       H  0.52927118  0.84604798  0.00925749     0.29000
H3510       H  0.59281073  0.79332131  0.10257176     0.29000
H3511       H  0.60210075  0.80570410  0.06290304     0.19600
H3512       H  0.53130738  0.84623932  0.04970454     0.19600
C3513       C  0.75089442  0.91698386  0.04929064    -0.06300
C3514       C  0.73742311  0.91922850  0.07131528    -0.17400
C3515       C  0.75425668  0.94249811  0.08747073     0.10900
C3516       C  0.78538658  0.96378672  0.08164533    -0.06200
C3517       C  0.79851424  0.96205989  0.05924837    -0.17400
C3518       C  0.78154108  0.93909777  0.04289912     0.11000
S3519       S  0.73631347  0.94428898  0.11588729    -0.32400
S3520       S  0.80099135  0.93846934  0.01496851    -0.32400
H3521       H  0.78520520  0.90745749  0.01209987     0.29000
H3522       H  0.70853808  0.41882787  0.11354434     0.29000
H3523       H  0.71382156  0.90227963  0.07603109     0.19600
H3524       H  0.82275549  0.97756048  0.05507614     0.19600
C3525       C  0.66529708  0.70819246  0.41975489    -0.06300
C3526       C  0.69143073  0.73545394  0.42592093    -0.17400
C3527       C  0.68885608  0.75504987  0.44231103     0.10900
C3528       C  0.65959946  0.74711992  0.45314335    -0.06200
C3529       C  0.63385934  0.71953746  0.44774355    -0.17400
C3530       C  0.63623984  0.69997132  0.43145264     0.11000
S3531       S  0.72310373  0.79060089  0.44719095    -0.32400
S3532       S  0.60069986  0.66544700  0.42622359    -0.32400
H3533       H  0.61434380  0.64905556  0.41730258     0.29000
H3534       H  0.70754265  0.80712467  0.44898033     0.29000
H3535       H  0.71363276  0.74238749  0.41679198     0.19600
H3536       H  0.61132655  0.71344534  0.45593244     0.19600
C3537       C  0.52911314  0.84127573  0.43478099    -0.06300
C3538       C  0.54058804  0.82199472  0.42922642    -0.17400
C3539       C  0.56401302  0.82173769  0.44272660     0.10900
C3540       C  0.57686092  0.84135018  0.46252442    -0.06200
C3541       C  0.56585046  0.86106981  0.46804475    -0.17400
C3542       C  0.54217357  0.86125197  0.45438280     0.11000
S3543       S  0.57787938  0.79702417  0.43267619    -0.32400
S3544       S  0.53029147  0.88802589  0.46235306    -0.32400
H3545       H  0.50036798  0.87196219  0.45274703     0.29000
H3546       H  0.60938753  0.81734057  0.43698601     0.29000
H3547       H  0.53251160  0.80817471  0.41321478     0.19600
H3548       H  0.57531179  0.87599613  0.48329234     0.19600
C3549       C  0.73735000  0.91128733  0.46671824    -0.06300
C3550       C  0.76767205  0.91521285  0.46496313    -0.17400
C3551       C  0.78984357  0.93462740  0.44802707     0.10900
C3552       C  0.78205263  0.95117708  0.43205775    -0.06200
C3553       C  0.75212296  0.94792878  0.43392291    -0.17400
C3554       C  0.72965919  0.92799577  0.45067573     0.11000
S3555       S  0.82740138  0.93651107  0.44793366    -0.32400
S3556       S  0.69176270  0.92490306  0.45025800    -0.32400
H3557       H  0.67662521  0.89426579  0.44510351     0.29000
H3558       H  0.84428994  0.96244820  0.43397668     0.29000
H3559       H  0.77443725  0.90288888  0.47691437     0.19600
H3560       H  0.74569931  0.96001855  0.42141171     0.19600
C3561       C  0.52494949  0.70637751  0.92166410    -0.06300
C3562       C  0.54028228  0.73569834  0.91299269    -0.17400
C3563       C  0.56420021  0.75853505  0.92584509     0.10900
C3564       C  0.57264664  0.75245849  0.94872823    -0.06200
C3565       C  0.55726574  0.72301271  0.95753593    -0.17400
C3566       C  0.53388601  0.69984867  0.94404966     0.11000
S3567       S  0.58397848  0.79460459  0.91112357    -0.32400
S3568       S  0.01715547  0.66232746  0.95536364    -0.32400
H3569       H  0.01277083  0.64876040  0.93253582     0.29000
H3570       H  0.61390133  0.80147936  0.91846190     0.29000
H3571       H  0.53421746  0.74067966  0.89547838     0.19600
H3572       H  0.56350997  0.71801844  0.97494348     0.19600
C3573       C  0.69131459  0.97424932  0.92038535    -0.06300
C3574       C  0.67421594  0.96765995  0.94230714    -0.17400
C3575       C  0.67327337  0.94655103  0.95864388     0.10900
C3576       C  0.68906311  0.93074950  0.95266580    -0.06200
C3577       C  0.70807060  0.93883885  0.93160928    -0.17400
C3578       C  0.70932360  0.96035776  0.91541701     0.11000
S3579       S  0.65003319  0.93863639  0.98633443    -0.32400
S3580       S  0.73399842  0.46908291  0.88860333    -0.32400
H3581       H  0.73772334  0.49737225  0.88442833     0.29000
H3582       H  0.64388395  0.96236924  0.98441090     0.29000
H3583       H  0.65916828  0.97697774  0.94563485     0.19600
H3584       H  0.72007118  0.92672687  0.92676318     0.19600
C3585       C  0.78089300  0.80796980  0.58606975    -0.06300
C3586       C  0.79057193  0.81841561  0.56214971    -0.17400
C3587       C  0.76968544  0.81815181  0.54521999     0.10900
C3588       C  0.73843473  0.80826390  0.55231652    -0.06200
C3589       C  0.72806607  0.79573542  0.57554100    -0.17400
C3590       C  0.74875082  0.79516683  0.59238354     0.11000
S3591       S  0.78449620  0.83189240  0.51497199    -0.32400
S3592       S  0.73245535  0.77855166  0.62172126    -0.32400
H3593       H  0.75656784  0.77353007  0.62882465     0.29000
H3594       H  0.75564982  0.81597744  0.50352507     0.29000
H3595       H  0.81490719  0.82808664  0.55682765     0.19600
H3596       H  0.70410378  0.78802828  0.58115250     0.19600
C3597       C  0.76437428  0.84897230  0.96614808    -0.06300
C3598       C  0.79557159  0.86262192  0.97347993    -0.17400
C3599       C  0.81943383  0.86430679  0.95798137     0.10900
C3600       C  0.81207979  0.85077803  0.93492442    -0.06200
C3601       C  0.78088769  0.83681802  0.92770485    -0.17400
C3602       C  0.75711616  0.83569019  0.94295086     0.11000
S3603       S  0.85882823  0.88472304  0.96840606    -0.32400
S3604       S  0.71789846  0.81625843  0.93196161    -0.32400
H3605       H  0.70362041  0.80389095  0.95457987     0.29000
H3606       H  0.87261465  0.89657176  0.94558095     0.29000
H3607       H  0.80158848  0.87288946  0.99119243     0.19600
H3608       H  0.77501240  0.82676187  0.90990079     0.19600
C3609       C  0.68372879  0.98017733  0.57570511    -0.06300
C3610       C  0.69959057  0.96596958  0.58410558    -0.17400
C3611       C  0.69722645  0.94083709  0.57276156     0.10900
C3612       C  0.67949253  0.92971339  0.55143364    -0.06200
C3613       C  0.66441004  0.94457165  0.54236143    -0.17400
C3614       C  0.66608258  0.96945904  0.55438315     0.11000
S3615       S  0.71493128  0.92242827  0.58827644    -0.32400
S3616       S  0.64394876  0.98541733  0.54220322    -0.32400
H3617       H  0.65557638  0.01066966  0.55691330     0.29000
H3618       H  0.68973652  0.89357601  0.58486684     0.29000
H3619       H  0.71161733  0.97284466  0.60117972     0.19600
H3620       H  0.65101312  0.93660693  0.52598753     0.19600
C3621       C  0.53898345  0.69626898  0.56868944    -0.06300
C3622       C  0.53906506  0.68988788  0.54391635    -0.17400
C3623       C  0.56041925  0.71126005  0.52734657     0.10900
C3624       C  0.58242817  0.73997935  0.53566656    -0.06200
C3625       C  0.58210474  0.74642369  0.56036538    -0.17400
C3626       C  0.56060356  0.72527362  0.57682627     0.11000
S3627       S  0.56089453  0.70052894  0.49609477    -0.32400
S3628       S  0.56244027  0.73721995  0.60794672    -0.32400
H3629       H  0.53205006  0.71595717  0.61519999     0.29000
H3630       H  0.53417828  0.67220692  0.49773560     0.29000
H3631       H  0.52334127  0.66756625  0.53776858     0.19600
H3632       H  0.59848158  0.76840010  0.56688761     0.19600
C3633       C  0.92941513  0.86045971  0.81205358    -0.06300
C3634       C  0.93647475  0.85302693  0.83468390    -0.17400
C3635       C  0.91937705  0.85120889  0.85584608     0.10900
C3636       C  0.89209962  0.85372405  0.85436988    -0.06200
C3637       C  0.88265502  0.85691670  0.83112344    -0.17400
C3638       C  0.90204629  0.86269540  0.81049138     0.11000
S3639       S  0.93605235  0.84895434  0.88402435    -0.32400
S3640       S  0.89200900  0.87594752  0.78379225    -0.32400
H3641       H  0.92286832  0.89567861  0.77624728     0.29000
H3642       H  0.92958100  0.86913876  0.89639455     0.29000
H3643       H  0.95718491  0.85100487  0.83623054     0.19600
H3644       H  0.86141059  0.85793149  0.82936508     0.19600
C3645       C  0.59056482  0.93172102  0.80845654    -0.06300
C3646       C  0.58409674  0.92117615  0.83261849    -0.17400
C3647       C  0.60327389  0.93767684  0.85165721     0.10900
C3648       C  0.63129017  0.96436734  0.84648124    -0.06200
C3649       C  0.63932254  0.97350458  0.82220181    -0.17400
C3650       C  0.61896215  0.95848707  0.80336469     0.11000
S3651       S  0.58941024  0.92447074  0.88216620    -0.32400
S3652       S  0.63063078  0.97634978  0.77394293    -0.32400
H3653       H  0.60032452  0.96684408  0.76600227     0.29000
H3654       H  0.60046160  0.95284490  0.89232819     0.29000
H3655       H  0.56269835  0.90076666  0.83692430     0.19600
H3656       H  0.66123967  0.49318472  0.81746242     0.19600
C3657       C  0.63103454  0.97576063  0.65281905    -0.06300
C3658       C  0.63613581  0.95242909  0.66022933    -0.17400
C3659       C  0.61517481  0.92957657  0.67584517     0.10900
C3660       C  0.59074787  0.93207361  0.68731550    -0.06200
C3661       C  0.58689228  0.95644089  0.68122586    -0.17400
C3662       C  0.60468851  0.97640755  0.66266867     0.11000
S3663       S  0.61948990  0.89698393  0.67818274    -0.32400
S3664       S  0.58844704  0.99748069  0.64976530    -0.32400
H3665       H  0.59982045  0.99801969  0.62604672     0.29000
H3666       H  0.58882829  0.87707313  0.68597695     0.29000
H3667       H  0.65543857  0.95072660  0.65226327     0.19600
H3668       H  0.56743608  0.95793395  0.68916181     0.19600
C3669       C  0.92834756  0.84834874  0.68646612    -0.06300
C3670       C  0.92542069  0.87207393  0.67707292    -0.17400
C3671       C  0.90345518  0.86739198  0.65951968     0.10900
C3672       C  0.88134583  0.83794933  0.65327289    -0.06200
C3673       C  0.88497037  0.81432593  0.66214200    -0.17400
C3674       C  0.90879165  0.81931451  0.67795070     0.11000
S3675       S  0.90604450  0.89984168  0.64510096    -0.32400
S3676       S  0.91274073  0.78773256  0.68662965    -0.32400
H3677       H  0.94452614  0.80376466  0.69205335     0.29000
H3678       H  0.89156644  0.88564164  0.62350248     0.29000
H3679       H  0.94128667  0.89459834  0.68279732     0.19600
H3680       H  0.86888756  0.79169057  0.65681384     0.19600
C3681       C  0.53547179  0.62688978  0.81023887    -0.06300
C3682       C  0.50305620  0.61087134  0.81419454    -0.17400
C3683       C  0.48419852  0.62097735  0.82820037     0.10900
C3684       C  0.50623400  0.64663087  0.84408576    -0.06200
C3685       C  0.53841191  0.66307226  0.83864818    -0.17400
C3686       C  0.55280573  0.65424353  0.82148315     0.11000
S3687       S  0.90588582  0.59603999  0.82209792    -0.32400
S3688       S  0.59407960  0.67835306  0.81590704    -0.32400
H3689       H  0.59455577  0.67029382  0.79156999     0.29000
H3690       H  0.89763702  0.61636702  0.83271419     0.29000
H3691       H  0.49336337  0.59060683  0.80438499     0.19600
H3692       H  0.55296169  0.68401286  0.84749702     0.19600
C3693       C  0.62227143  0.55216799  0.81794047    -0.06300
C3694       C  0.65451813  0.56484824  0.82009213    -0.17400
C3695       C  0.66720360  0.55279593  0.83581767     0.10900
C3696       C  0.64725049  0.52778683  0.85040044    -0.06200
C3697       C  0.61480688  0.51559232  0.84876147    -0.17400
C3698       C  0.60211079  0.52734663  0.83243464     0.11000
S3699       S  0.70901093  0.56957667  0.83545131    -0.32400
S3700       S  0.56043751  0.51016831  0.82954589    -0.32400
H3701       H  0.55248834  0.48739602  0.84680895     0.29000
H3702       H  0.70903728  0.54251955  0.83772175     0.29000
H3703       H  0.66996845  0.58381489  0.80878239     0.19600
H3704       H  0.59951474  0.49660035  0.86005497     0.19600
C3705       C  0.66473211  0.54410919  0.65423037    -0.06300
C3706       C  0.67617956  0.54464975  0.67738742    -0.17400
C3707       C  0.67113678  0.55987892  0.69657184     0.10900
C3708       C  0.65098323  0.57188761  0.69341895    -0.06200
C3709       C  0.64064694  0.57201349  0.66974925    -0.17400
C3710       C  0.64921909  0.56027730  0.64998821     0.11000
S3711       S  0.69267572  0.56457480  0.72382093    -0.32400
S3712       S  0.63852247  0.06450212  0.61982014    -0.32400
H3713       H  0.62565069  0.08266091  0.62594158     0.29000
H3714       H  0.69401336  0.59143659  0.73055710     0.20600
H3715       H  0.69001829  0.53399760  0.68029219     0.19600
H3716       H  0.62526278  0.58087596  0.66662598     0.19600
C3717       C  0.56721855  0.63960531  0.68600518    -0.06300
C3718       C  0.57158399  0.62922969  0.66335191    -0.17400
C3719       C  0.55904003  0.63319094  0.64209081     0.10900
C3720       C  0.53756689  0.64375005  0.64379136    -0.06200
C3721       C  0.53427368  0.65551324  0.66592718    -0.17400
C3722       C  0.55045761  0.65537656  0.68649269     0.11000
S3723       S  0.57133226  0.62368903  0.61384011    -0.32400
S3724       S  0.55009738  0.67720558  0.71203559    -0.32400
H3725       H  0.57869970  0.68244115  0.72122160     0.29000
H3726       H  0.54751230  0.62129605  0.59902215     0.29000
H3727       H  0.58454441  0.61744891  0.66199832     0.19600
H3728       H  0.51989094  0.66592926  0.66690660     0.19600
C3729       C  0.94405155  0.58548396  0.80206784    -0.06300
C3730       C  0.93841312  0.57367561  0.83146658    -0.17400
C3731       C  0.93990474  0.59557548  0.85424784     0.10900
C3732       C  0.94736417  0.63064956  0.84858600    -0.06200
C3733       C  0.95463219  0.64403359  0.81943026    -0.17400
C3734       C  0.95354860  0.62184954  0.79620355     0.11000
S3735       S  0.93573325  0.58121687  0.88447996    -0.32400
S3736       S  0.96803529  0.64102046  0.76749075    -0.32400
H3737       H  0.96922412  0.61834220  0.75470780     0.29000
H3738       H  0.96320453  0.60587495  0.89241925     0.29000
H3739       H  0.93053396  0.55082492  0.83624764     0.19600
H3740       H  0.96335668  0.66748628  0.81608935     0.19600
C3741       C  0.87487845  0.90227442  0.86085871    -0.06300
C3742       C  0.85163037  0.90721217  0.85128373    -0.17400
C3743       C  0.85810595  0.92676188  0.83172400     0.10900
C3744       C  0.88712250  0.93857258  0.81919185    -0.06200
C3745       C  0.91047327  0.93414155  0.82906726    -0.17400
C3746       C  0.90554599  0.91896143  0.85109703     0.11000
S3747       S  0.82829356  0.93538049  0.82342228    -0.32400
S3748       S  0.93934211  0.92257876  0.86602349    -0.32400
H3749       H  0.92527619  0.91497431  0.88931632     0.29000
H3750       H  0.84892082  0.96413159  0.81443002     0.29000
H3751       H  0.82818655  0.89569903  0.85893860     0.19600
H3752       H  0.93296345  0.94309747  0.81990823     0.19600
C3753       C  0.96719190  0.60327658  0.64073156    -0.06300
C3754       C  0.93952547  0.60200620  0.64952705    -0.17400
C3755       C  0.92019941  0.58066064  0.66689978     0.10900
C3756       C  0.93110313  0.56348518  0.67877144    -0.06200
C3757       C  0.95920649  0.56559889  0.67051762    -0.17400
C3758       C  0.97483034  0.58228847  0.64990558     0.11000
S3759       S  0.88110521  0.57446276  0.67086710    -0.32400
S3760       S  0.99867329  0.57056857  0.63348372    -0.32400
H3761       H  0.99422678  0.57951634  0.61052269     0.29000
H3762       H  0.86775552  0.54475290  0.67881739     0.29000
H3763       H  0.93197081  0.61657980  0.64184101     0.19600
H3764       H  0.96708968  0.55141671  0.67851649     0.19600
C3765       C  0.85181172  0.90725481  0.69586076    -0.06300
C3766       C  0.85426560  0.88199970  0.70179610    -0.17400
C3767       C  0.84259820  0.85708634  0.68657987     0.10900
C3768       C  0.83359164  0.85920704  0.66269789    -0.06200
C3769       C  0.82927341  0.88355769  0.65743502    -0.17400
C3770       C  0.83614351  0.90623198  0.67430718     0.11000
S3771       S  0.83785600  0.82304731  0.69952729    -0.32400
S3772       S  0.82376512  0.93281269  0.66733418    -0.32400
H3773       H  0.82001179  0.93894636  0.69170198     0.29000
H3774       H  0.81721203  0.80413888  0.68199779     0.29000
H3775       H  0.86488429  0.88129238  0.71859283     0.19600
H3776       H  0.82083807  0.88534351  0.63988662     0.19600
C3777       C  0.92059621  0.65494292  0.53580475    -0.06300
C3778       C  0.93662120  0.67780500  0.55262329    -0.17400
C3779       C  0.95927652  0.67806632  0.56766896     0.10900
C3780       C  0.96688413  0.65522322  0.56575465    -0.06200
C3781       C  0.95095965  0.63225711  0.54890545    -0.17400
C3782       C  0.92813213  0.63196640  0.53382417     0.11000
S3783       S  0.97653232  0.70646890  0.59050206    -0.32400
S3784       S  0.90992676  0.60205763  0.51240166    -0.32400
H3785       H  0.90629232  0.61905400  0.49422064     0.29000
H3786       H  0.96240990  0.72315437  0.58375601     0.29000
H3787       H  0.93068111  0.69528090  0.55441144     0.19600
H3788       H  0.95610667  0.61419808  0.54774891     0.19600
C3789       C  0.80980435  0.56597720  0.44983800    -0.06300
C3790       C  0.82769846  0.55326427  0.45720911    -0.17400
C3791       C  0.82781558  0.52997827  0.44413536     0.10900
C3792       C  0.80848385  0.51788128  0.42383610    -0.06200
C3793       C  0.78953891  0.52951356  0.41713250    -0.17400
C3794       C  0.79038885  0.55360470  0.42932981     0.11000
S3795       S  0.85471609  0.51814943  0.45335611    -0.32400
S3796       S  0.76794941  0.56860954  0.41599400    -0.32400
H3797       H  0.79284329  0.59809854  0.41567690     0.29000
H3798       H  0.86482462  0.01606553  0.43100478     0.29000
H3799       H  0.84257450  0.56219113  0.47275212     0.19600
H3800       H  0.77553551  0.52104422  0.40107049     0.19600
C3801       C  0.71856170  0.54821074  0.57610588    -0.06300
C3802       C  0.70997146  0.56599111  0.56284286    -0.17400
C3803       C  0.72986885  0.58636460  0.54526869     0.10900
C3804       C  0.75922511  0.58868207  0.53977037    -0.06200
C3805       C  0.76822226  0.57139051  0.55351682    -0.17400
C3806       C  0.74853939  0.55165161  0.57181306     0.11000
S3807       S  0.71648735  0.60946230  0.53136531    -0.32400
S3808       S  0.76353139  0.53220545  0.58916522    -0.32400
H3809       H  0.74556241  0.52834323  0.61037016     0.29000
H3810       H  0.74585509  0.63543777  0.53135401     0.29000
H3811       H  0.68761134  0.56447516  0.56667420     0.19600
H3812       H  0.79063278  0.57299350  0.54984187     0.19600
C3813       C  0.91244464  0.75308946  0.45821771    -0.06300
C3814       C  0.90749773  0.77667873  0.45205216    -0.17400
C3815       C  0.92943095  0.80088331  0.43795010     0.10900
C3816       C  0.95703386  0.80156328  0.42914840    -0.06200
C3817       C  0.96144145  0.77745350  0.43488647    -0.17400
C3818       C  0.93975406  0.75354691  0.44939458     0.11000
S3819       S  0.92067488  0.83026400  0.43200145    -0.32400
S3820       S  0.94777622  0.72375912  0.45541508    -0.32400
H3821       H  0.91646071  0.70114439  0.45748080     0.29000
H3822       H  0.95174051  0.85338430  0.43029623     0.29000
H3823       H  0.88690372  0.77681724  0.45907300     0.19600
H3824       H  0.98120524  0.77645624  0.42727750     0.19600
C3825       C  0.71196126  0.68611483  0.41833771    -0.06300
C3826       C  0.74415445  0.70433526  0.41444965    -0.17400
C3827       C  0.76554689  0.70495936  0.43107295     0.10900
C3828       C  0.75460566  0.68639074  0.45196954    -0.06200
C3829       C  0.72233424  0.67010048  0.45674261    -0.17400
C3830       C  0.70101264  0.66944269  0.44015105     0.11000
S3831       S  0.80625389  0.72762761  0.42325901    -0.32400
S3832       S  0.66036965  0.64476606  0.44708592    -0.32400
H3833       H  0.65259840  0.63402975  0.42333211     0.29000
H3834       H  0.81346270  0.74247968  0.44566993     0.29000
H3835       H  0.75270194  0.71727513  0.39779733     0.19600
H3836       H  0.71349078  0.65605273  0.47281451     0.19600
C3837       C  0.84165828  0.75473830  0.54375141    -0.06300
C3838       C  0.81244935  0.74297302  0.55552047    -0.17400
C3839       C  0.80671760  0.75919340  0.57331754     0.10900
C3840       C  0.83001732  0.78865133  0.57841979    -0.06200
C3841       C  0.85823562  0.80118816  0.56487120    -0.17400
C3842       C  0.86448910  0.78444248  0.54799797     0.11000
S3843       S  0.77090018  0.73967285  0.59070494    -0.32400
S3844       S  0.90243370  0.80170466  0.53327898    -0.32400
H3845       H  0.89276831  0.78499871  0.51182208     0.29000
H3846       H  0.78505741  0.75010553  0.61322546     0.29000
H3847       H  0.79493539  0.72002121  0.55240221     0.19600
H3848       H  0.87628611  0.82377835  0.56850378     0.19600
C3849       C  0.75030037  0.58671344  0.95313370    -0.06300
C3850       C  0.76206009  0.58554380  0.93000327    -0.17400
C3851       C  0.74435445  0.56286982  0.91370944     0.10900
C3852       C  0.71364932  0.54091828  0.92050519    -0.06200
C3853       C  0.70213365  0.54182981  0.94383394    -0.17400
C3854       C  0.72043365  0.56383745  0.96044903     0.11000
S3855       S  0.76238022  0.56460270  0.88436238    -0.32400
S3856       S  0.70328509  0.56296932  0.98980882    -0.32400
H3857       H  0.72935221  0.56737256  0.00281922     0.29000
H3858       H  0.73761659  0.54038818  0.87317277     0.29000
H3859       H  0.78504805  0.60301373  0.92432079     0.19600
H3860       H  0.67826277  0.52608343  0.94887266     0.19600
C3861       C  0.68888968  0.65487602  0.06616669    -0.06300
C3862       C  0.68251963  0.64847392  0.04155394    -0.17400
C3863       C  0.70448626  0.64760912  0.02549461     0.10900
C3864       C  0.73416022  0.65397214  0.03398951    -0.06200
C3865       C  0.74070291  0.66119383  0.05855995    -0.17400
C3866       C  0.71856087  0.66177591  0.07464591     0.11000
S3867       S  0.69211643  0.63650927  0.99478695    -0.32400
S3868       S  0.72866689  0.67198259  0.10597647    -0.32400
H3869       H  0.75805340  0.67389598  0.10481273     0.29000
H3870       H  0.70678499  0.61933302  0.99218010     0.29000
H3871       H  0.65965573  0.64261481  0.03504140     0.19600
H3872       H  0.76347217  0.66686787  0.06509501     0.19600
C3873       C  0.91603807  0.68254636  0.96594374    -0.06300
C3874       C  0.91321242  0.65492009  0.95996611    -0.17400
C3875       C  0.93172400  0.65215663  0.94182490     0.10900
C3876       C  0.95352046  0.67742865  0.92832673    -0.06200
C3877       C  0.95665532  0.70528220  0.93418117    -0.17400
C3878       C  0.93862740  0.70819594  0.95310009     0.11000
S3879       S  0.92589331  0.61533478  0.93678728    -0.32400
S3880       S  0.94637353  0.74518120  0.96048933    -0.32400
H3881       H  0.94365337  0.74045734  0.98579221     0.29000
H3882       H  0.95691283  0.62483446  0.93000657     0.29000
H3883       H  0.89630232  0.63500124  0.96963220     0.19600
H3884       H  0.97308610  0.72482188  0.92389265     0.19600
C3885       C  0.81122567  0.57442945  0.04937076    -0.06300
C3886       C  0.79187254  0.56567455  0.07025423    -0.17400
C3887       C  0.79050972  0.54374402  0.08599492     0.10900
C3888       C  0.80884769  0.53027623  0.08072056    -0.06200
C3889       C  0.82599800  0.53726355  0.05882259    -0.17400
C3890       C  0.82682039  0.55863683  0.04285057     0.11000
S3891       S  0.76731030  0.03653585  0.11413820    -0.32400
S3892       S  0.84913846  0.56660409  0.01469255    -0.32400
H3893       H  0.85665101  0.54376925  0.01667254     0.29000
H3894       H  0.76463035  0.00877997  0.11918272     0.29000
H3895       H  0.77974520  0.57758779  0.07536562     0.19600
H3896       H  0.84089064  0.52783209  0.05516203     0.19600
C3897       C  0.93108291  0.75572383  0.04952194    -0.06300
C3898       C  0.94748258  0.74932677  0.06700526    -0.17400
C3899       C  0.97055714  0.77149443  0.08096534     0.10900
C3900       C  0.97843055  0.80139313  0.07738105    -0.06200
C3901       C  0.96301554  0.80825099  0.05950333    -0.17400
C3902       C  0.93995239  0.78594670  0.04526246     0.11000
S3903       S  0.98757717  0.75960302  0.10402539    -0.32400
S3904       S  0.92336241  0.79777237  0.02193124    -0.32400
H3905       H  0.92479561  0.77881958  0.00416612     0.29000
H3906       H  0.49024891  0.78019022  0.12137703     0.29000
H3907       H  0.94149508  0.72653323  0.07076318     0.19600
H3908       H  0.96892300  0.83121394  0.05674237     0.19600
C3909       C  0.83654821  0.76323764  0.96389143    -0.06300
C3910       C  0.86521932  0.78978595  0.96232708    -0.17400
C3911       C  0.86897433  0.81407928  0.94839493     0.10900
C3912       C  0.84358151  0.81205727  0.93535667    -0.06200
C3913       C  0.81464869  0.78620668  0.93764427    -0.17400
C3914       C  0.81067280  0.76183290  0.95162952     0.11000
S3915       S  0.90726202  0.84659922  0.94741579    -0.32400
S3916       S  0.77281890  0.72850188  0.95138952    -0.32400
H3917       H  0.75624239  0.74149798  0.94159866     0.29000
H3918       H  0.89868444  0.86678200  0.93837093     0.29000
H3919       H  0.88507633  0.79155229  0.97176352     0.19600
H3920       H  0.79555708  0.78444392  0.92711306     0.19600
loop_ 
_geom_bond_atom_site_label_1 
_geom_bond_atom_site_label_2 
_geom_bond_distance 
_geom_bond_site_symmetry_2 
_ccdc_geom_bond_type 
O1           Ni7   1.930       .  S
O1           C22   1.272       .  A
O2          Ni25   1.947   1_556  S
O2           C11   1.280       .  A
O3           Ni7   1.897       .  S
O3          Ni25   1.918       .  S
O3          Ni19   1.915       .  S
O3           H26   0.966       .  S
C4           O21   1.280       .  A
C4           O13   1.279       .  A
C4          C909   1.475       .  S
O5          Ni24   1.911       .  S
O5           C11   1.264       .  A
O6          Ni24   1.904       .  S
O6            C8   1.265   1_556  A
Ni7          O10   1.921       .  S
Ni7          O12   1.897       .  S
C8           O18   1.278       .  A
C8          C924   1.494       .  S
O9          Ni25   1.929       .  S
O9           C15   1.281       .  A
O10          C15   1.277       .  A
C11         C969   1.500       .  S
O12          C14   1.268   1_554  A
O13         Ni24   1.918       .  S
C14          O20   1.278       .  A
C14         C933   1.492       .  S
C15         C957   1.499       .  S
H16          O17   0.965       .  S
O17         Ni25   1.918   1_556  S
O17         Ni19   1.889   1_556  S
O17         Ni24   1.880       .  S
O18         Ni19   1.946       .  S
Ni19         O23   1.914       .  S
Ni19         O21   1.935   1_554  S
O20         Ni25   1.954   1_556  S
C22          O23   1.270       .  A
C22         C945   1.479       .  S
O27         Ni33   1.911       .  S
O27          C48   1.267       .  A
O28         Ni51   1.911       .  S
O28          C37   1.265       .  A
O29         Ni33   1.895       .  S
O29         Ni51   1.897       .  S
O29         Ni45   1.930       .  S
O29          H52   0.966       .  S
C30          O47   1.288       .  A
C30          O39   1.273       .  A
C30         C849   1.492       .  S
O31         Ni50   1.922       .  S
O31          C37   1.268       .  A
O32         Ni50   1.891       .  S
O32          C34   1.264       .  A
Ni33         O36   1.926       .  S
Ni33         O38   1.904       .  S
C34          O44   1.279       .  A
C34         C864   1.496       .  S
O35         Ni51   1.918       .  S
O35          C41   1.276       .  A
O36          C41   1.280       .  A
C37         C888   1.485       .  S
O38          C40   1.265       .  A
O39         Ni50   1.907       .  S
C40          O46   1.275       .  A
C40         C873   1.482       .  S
C41         C897   1.470       .  S
H42          O43   0.967       .  S
O43         Ni51   1.910       .  S
O43         Ni45   1.913       .  S
O43         Ni50   1.902       .  S
O44         Ni45   1.957       .  S
Ni45         O49   1.946       .  S
Ni45         O47   1.944       .  S
O46         Ni51   1.943       .  S
C48          O49   1.280       .  A
C48         C837   1.488       .  S
N53          H85   1.043       .  S
N53          C57   1.353   1_565  A
N53        C1038   1.357       .  A
N54          C61   1.346       .  A
N54          C62   1.354       .  A
N55          H86   1.044       .  S
N55          C59   1.358       .  A
N55        C1040   1.351   1_545  A
N56          C63   1.353       .  A
N56          C64   1.349       .  A
C57          C65   1.391   1_545  A
C57          C73   1.423       .  A
C58        N1033   1.357       .  A
C58          C74   1.421       .  A
C58          C66   1.385       .  A
C59          C67   1.389       .  A
C59          C76   1.428       .  A
C60        N1035   1.351       .  A
C60          C75   1.415       .  A
C60          C68   1.385       .  A
C61          C73   1.411       .  A
C61          C69   1.387       .  A
C62          C76   1.415       .  A
C62          C70   1.382       .  A
C63          C71   1.384       .  A
C63          C74   1.415       .  A
C64          C72   1.388       .  A
C64          C75   1.416       .  A
C65        C1046   1.376       .  A
C65          H77   1.081   1_565  S
C66        C1045   1.377       .  A
C66          H78   1.082       .  S
C67        C1048   1.369       .  A
C67          H79   1.075       .  S
C68        C1047   1.369       .  A
C68          H80   1.077       .  S
C69          C70   1.379       .  A
C69          H81   1.076       .  S
C70          H82   1.080       .  S
C71          C72   1.375       .  A
C71          H83   1.082       .  S
C72          H84   1.081       .  S
C73         C816   1.491       .  S
C74         C825   1.514       .  S
C75         C804   1.491       .  S
C76         C789   1.529       .  S
N87         H119   1.044       .  S
N87          C92   1.349       .  A
N87          C91   1.351       .  A
N88          C95   1.354       .  A
N88          C96   1.347       .  A
N89         H120   1.041       .  S
N89          C94   1.350       .  A
N89          C93   1.347       .  A
N90          C97   1.352       .  A
N90          C98   1.350       .  A
C91          C99   1.387       .  A
C91         C107   1.418       .  A
C92         C108   1.417       .  A
C92         C100   1.388       .  A
C93         C101   1.386       .  A
C93         C110   1.408       .  A
C94         C109   1.413       .  A
C94         C102   1.388       .  A
C95         C107   1.417       .  A
C95         C103   1.387       .  A
C96         C110   1.406       .  A
C96         C104   1.376       .  A
C97         C105   1.385       .  A
C97         C108   1.415       .  A
C98         C106   1.378       .  A
C98         C109   1.410       .  A
C99         C100   1.384       .  A
C99         H111   1.082       .  S
C100        H112   1.082       .  S
C101        C102   1.383       .  A
C101        H113   1.082       .  S
C102        H114   1.082       .  S
C103        C104   1.378       .  A
C103        H115   1.082       .  S
C104        H116   1.075       .  S
C105        C106   1.376       .  A
C105        H117   1.082       .  S
C106        H118   1.072   1_455  S
C107        C768   1.513       .  S
C108        C777   1.509       .  S
C109        C741   1.500       .  S
C110        C753   1.482       .  S
N121        H153   1.043       .  S
N121        C125   1.356       .  A
N121       C2086   1.355   1_455  A
N122        C129   1.349       .  A
N122        C130   1.346       .  A
N123        H154   1.038       .  S
N123        C127   1.357       .  A
N123       C2088   1.354   1_455  A
N124        C131   1.353       .  A
N124        C132   1.350       .  A
C125        C133   1.387       .  A
C125        C141   1.422       .  A
C126       N2081   1.354       .  A
C126        C142   1.418       .  A
C126        C134   1.386       .  A
C127        C135   1.388       .  A
C127        C144   1.423       .  A
C128       N2083   1.354       .  A
C128        C143   1.419       .  A
C128        C136   1.388       .  A
C129        C141   1.412       .  A
C129        C137   1.384       .  A
C130        C144   1.411       .  A
C130        C138   1.386       .  A
C131        C139   1.385       .  A
C131        C142   1.415       .  A
C132        C140   1.388       .  A
C132        C143   1.415       .  A
C133       C2094   1.376   1_455  A
C133        H145   1.081       .  S
C134       C2093   1.376       .  A
C134        H146   1.082       .  S
C135       C2096   1.372   1_455  A
C135        H147   1.082       .  S
C136       C2095   1.372       .  A
C136        H148   1.082       .  S
C137        C138   1.376       .  A
C137        H149   1.082       .  S
C138        H150   1.078       .  S
C139        C140   1.375       .  A
C139        H151   1.082       .  S
C140        H152   1.081       .  S
C141        C705   1.507       .  S
C142        C693   1.506       .  S
C143        C729   1.487       .  S
C144        C720   1.496       .  S
C155        C840   1.494       .  S
C155        C160   1.405       .  A
C155       C2116   1.424       .  A
C156        C681   1.493       .  S
C156        C157   1.406       .  A
C156       C2115   1.423   1_455  A
C157        C158   1.400       .  A
C157        H162   1.084       .  S
C158        C780   1.485       .  S
C158       C2119   1.420   1_455  A
C159        C813   1.497       .  S
C159        C160   1.406       .  A
C159       C2118   1.421       .  A
C160        H161   1.085       .  S
C163        C669   1.483       .  S
C163        C168   1.402       .  A
C163       C1144   1.417       .  A
C164        C861   1.491       .  S
C164        C165   1.408       .  A
C164       C1143   1.416   1_545  A
C165        C166   1.409       .  A
C165        H170   1.085       .  S
C166        C765   1.485       .  S
C166       C1147   1.420   1_545  A
C167        C717   1.500       .  S
C167        C168   1.403       .  A
C167       C1146   1.420       .  A
C168        H169   1.086       .  S
C171        C660   1.497       .  S
C171        C172   1.418       .  A
C171        C176   1.405       .  A
C172        C972   1.489       .  S
C172        C173   1.408       .  A
C173        C174   1.407       .  A
C173        H178   1.083       .  S
C174        C696   1.510       .  S
C174        C175   1.428       .  A
C175        C801   1.498       .  S
C175        C176   1.412       .  A
C176        H177   1.084       .  S
C179        C645   1.498       .  S
C179        C180   1.418       .  A
C179        C184   1.415       .  A
C180        C900   1.491       .  S
C180        C181   1.399       .  A
C181        C182   1.398       .  A
C181        H186   1.085       .  S
C182        C732   1.489       .  S
C182        C183   1.425       .  A
C183        C828   1.511       .  S
C183        C184   1.417       .  A
C184        H185   1.083       .  S
C187        C912   1.481       .  S
C187        C192   1.402       .  A
C187       C1168   1.414   1_545  A
C188        C633   1.487       .  S
C188        C189   1.406       .  A
C188       C1167   1.415       .  A
C189        C190   1.406       .  A
C189        H194   1.084       .  S
C190        C708   1.491       .  S
C190       C1171   1.419       .  A
C191        C756   1.490       .  S
C191        C192   1.403       .  A
C191       C1170   1.419   1_545  A
C192        H193   1.085       .  S
C195        C936   1.492       .  S
C195        C200   1.404       .  A
C195       C2156   1.421       .  A
C196        C621   1.485       .  S
C196        C197   1.416       .  A
C196       C2155   1.422   1_455  A
C197        C198   1.417   1_455  A
C197        H202   1.081       .  S
C198        C744   1.531   1_655  S
C198       C2159   1.373       .  A
C199        C792   1.410       .  S
C199        C200   1.395       .  A
C199       C2158   1.373       .  A
C200        H201   1.084       .  S
O203       Ni209   1.927       .  S
O203        C224   1.269       .  A
O204       Ni227   1.943       .  S
O204        C213   1.276       .  A
O205       Ni209   1.902       .  S
O205       Ni227   1.921       .  S
O205       Ni221   1.920       .  S
O205        H228   0.967       .  S
C206        O223   1.284       .  A
C206        O215   1.277       .  A
C206        C588   1.475       .  S
O207       Ni226   1.903       .  S
O207        C213   1.263       .  A
O208       Ni226   1.899       .  S
O208        C210   1.264       .  A
Ni209       O212   1.917       .  S
Ni209       O214   1.893       .  S
C210        O220   1.276       .  A
C210        C684   1.489       .  S
O211       Ni227   1.937       .  S
O211        C217   1.282       .  A
O212        C217   1.274       .  A
C213        C600   1.480       .  S
O214        C216   1.267       .  A
O215       Ni226   1.909       .  S
C216        O222   1.277       .  A
C216        C609   1.500       .  S
C217        C672   1.491       .  S
H218        O219   0.966       .  S
O219       Ni227   1.928       .  S
O219       Ni221   1.896       .  S
O219       Ni226   1.892       .  S
O220       Ni221   1.944       .  S
Ni221       O225   1.924       .  S
Ni221       O223   1.943       .  S
O222       Ni227   1.953       .  S
C224        O225   1.271       .  A
C224        C648   1.481       .  S
O229       Ni235   1.921       .  S
O229        C250   1.271       .  A
O230       Ni253   1.921       .  S
O230        C239   1.272       .  A
O231       Ni235   1.893       .  S
O231       Ni253   1.899   1_554  S
O231       Ni247   1.916   1_554  S
O231        H254   0.965       .  S
C232        O249   1.279       .  A
C232        O241   1.274       .  A
C232        C624   1.487       .  S
O233       Ni252   1.921       .  S
O233        C239   1.270       .  A
O234       Ni252   1.893   1_554  S
O234        C236   1.264       .  A
Ni235       O238   1.918       .  S
Ni235       O240   1.920       .  S
C236        O246   1.281       .  A
C236        C561   1.496       .  S
O237       Ni253   1.933   1_554  S
O237        C243   1.280       .  A
O238        C243   1.277       .  A
C239        C636   1.482       .  S
O240        C242   1.269   1_554  A
O241       Ni252   1.926       .  S
C242        O248   1.278       .  A
C242        C657   1.496       .  S
C243        C573   1.472       .  S
H244        O245   0.960       .  S
O245       Ni253   1.916       .  S
O245       Ni247   1.917       .  S
O245       Ni252   1.900       .  S
O246       Ni247   1.967   1_554  S
Ni247       O251   1.934   1_556  S
Ni247       O249   1.928       .  S
O248       Ni253   1.948       .  S
C250        O251   1.277       .  A
C250        C549   1.492       .  S
N255        H287   1.040       .  S
N255        C260   1.349       .  A
N255       C2219   1.350       .  A
N256        C263   1.353       .  A
N256        C264   1.347       .  A
N257        H288   1.037       .  S
N257        C262   1.355       .  A
N257       C2221   1.355       .  A
N258        C265   1.356       .  A
N258        C266   1.353       .  A
C259       N2215   1.349   1_455  A
C259        C267   1.385       .  A
C259        C275   1.408       .  A
C260        C276   1.412       .  A
C260        C268   1.388       .  A
C261       N2217   1.355   1_455  A
C261        C269   1.383       .  A
C261        C278   1.416       .  A
C262        C277   1.424       .  A
C262        C270   1.391       .  A
C263        C275   1.415       .  A
C263        C271   1.387       .  A
C264        C278   1.410       .  A
C264        C272   1.380       .  A
C265        C273   1.383       .  A
C265        C276   1.417       .  A
C266        C274   1.389       .  A
C266        C277   1.425       .  A
C267       C2228   1.378   1_455  A
C267        H279   1.082       .  S
C268       C2227   1.378       .  A
C268        H280   1.082       .  S
C269       C2230   1.370   1_455  A
C269        H281   1.082       .  S
C270       C2229   1.370       .  A
C270        H282   1.078       .  S
C271        C272   1.368       .  A
C271        H283   1.079       .  S
C272        H284   1.075       .  S
C273        C274   1.367       .  A
C273        H285   1.081       .  S
C274        H286   1.080       .  S
C275        C537   1.495       .  S
C276        C516   1.498       .  S
C277        C501   1.498       .  S
C278        C528   1.488       .  S
N289        H321   1.042       .  S
N289        C294   1.351       .  A
N289        C293   1.350       .  A
N290        C297   1.351       .  A
N290        C298   1.347       .  A
N291        H322   1.041       .  S
N291        C296   1.352       .  A
N291        C295   1.353       .  A
N292        C299   1.351       .  A
N292        C300   1.350       .  A
C293        C301   1.388       .  A
C293        C309   1.413       .  A
C294        C310   1.409       .  A
C294        C302   1.385       .  A
C295        C303   1.386       .  A
C295        C312   1.413       .  A
C296        C311   1.416       .  A
C296        C304   1.387       .  A
C297        C309   1.413       .  A
C297        C305   1.387       .  A
C298        C312   1.410       .  A
C298        C306   1.384       .  A
C299        C307   1.386       .  A
C299        C310   1.414       .  A
C300        C308   1.387       .  A
C300        C311   1.413       .  A
C301        C302   1.377       .  A
C301        H313   1.082       .  S
C302        H314   1.082       .  S
C303        C304   1.378       .  A
C303        H315   1.082       .  S
C304        H316   1.082       .  S
C305        C306   1.379       .  A
C305        H317   1.082       .  S
C306        H318   1.079       .  S
C307        C308   1.375       .  A
C307        H319   1.082       .  S
C308        H320   1.082       .  S
C309        C456   1.496       .  S
C310        C480   1.492       .  S
C311        C489   1.492       .  S
C312        C468   1.484       .  S
C323        C852   1.483   1_565  S
C323        C328   1.401   1_565  A
C323       C1304   1.410       .  A
C324        C612   1.488       .  S
C324        C325   1.403       .  A
C324       C1303   1.409       .  A
C325        C326   1.406       .  A
C325        H330   1.085       .  S
C326        C477   1.481       .  S
C326       C1307   1.434       .  A
C327        C504   1.524   1_565  S
C327        C328   1.407   1_565  A
C327       C1306   1.434       .  A
C328        H329   1.082       .  S
N331        H363   1.040       .  S
N331        C336   1.359       .  A
N331       C1315   1.358       .  A
N332        C339   1.351       .  A
N332        C340   1.352       .  A
N333        H364   1.040       .  S
N333        C338   1.353       .  A
N333       C1317   1.358       .  A
N334        C341   1.355       .  A
N334        C342   1.356       .  A
C335       N1311   1.358       .  A
C335        C343   1.385       .  A
C335        C351   1.424       .  A
C336        C352   1.430       .  A
C336        C344   1.391       .  A
C337       N1313   1.358   1_545  A
C337        C345   1.391       .  A
C337        C354   1.426       .  A
C338        C353   1.417       .  A
C338        C346   1.385       .  A
C339        C351   1.417       .  A
C339        C347   1.385       .  A
C340        C354   1.418       .  A
C340        C348   1.386       .  A
C341        C349   1.387       .  A
C341        C352   1.423       .  A
C342        C350   1.384       .  A
C342        C353   1.421       .  A
C343       C1324   1.369   1_545  A
C343        H355   1.081       .  S
C344       C1323   1.369       .  A
C344        H356   1.079       .  S
C345       C1326   1.369   1_545  A
C345        H357   1.080       .  S
C346       C1325   1.369       .  A
C346        H358   1.082       .  S
C347        C348   1.374       .  A
C347        H359   1.082       .  S
C348        H360   1.079       .  S
C349        C350   1.371       .  A
C349        H361   1.079       .  S
C350        H362   1.081       .  S
C351        C429   1.510       .  S
C352        C405   1.508       .  S
C353        C417   1.507       .  S
C354        C444   1.504       .  S
C365        C948   1.479       .  S
C365        C370   1.401       .  A
C365       C1346   1.413   1_545  A
C366        C576   1.482       .  S
C366        C367   1.405       .  A
C366       C1345   1.413       .  A
C367        C368   1.403       .  A
C367        H372   1.085       .  S
C368        C492   1.485       .  S
C368       C1349   1.414       .  A
C369        C513   1.476       .  S
C369        C370   1.398       .  A
C369       C1348   1.414   1_545  A
C370        H371   1.085       .  S
C373        C885   1.484       .  S
C373        C374   1.414       .  A
C373        C378   1.408       .  A
C374        C585   1.494       .  S
C374        C375   1.402       .  A
C375        C376   1.403       .  A
C375        H380   1.084       .  S
C376        C525   1.484       .  S
C376        C377   1.424       .  A
C377        C432   1.511       .  S
C377        C378   1.408       .  A
C378        H379   1.083       .  S
C381        C552   1.487       .  S
C381        C382   1.417       .  A
C381        C386   1.402       .  A
C382        C921   1.490       .  S
C382        C383   1.406       .  A
C383        C384   1.406       .  A
C383        H388   1.085       .  S
C384        C441   1.505       .  S
C384        C385   1.423       .  A
C385        C540   1.479       .  S
C385        C386   1.402       .  A
C386        H387   1.085       .  S
C389        C597   1.483       .  S
C389        C394   1.406       .  A
C389       C2350   1.425   1_455  A
C390        C876   1.498       .  S
C390        C391   1.408       .  A
C390       C2349   1.426       .  A
C391        C392   1.401       .  A
C391        H396   1.085       .  S
C392        C453   1.482       .  S
C392       C2353   1.416       .  A
C393        C408   1.493       .  S
C393        C394   1.400       .  A
C393       C2352   1.416   1_455  A
C394        H395   1.085       .  S
C397        C564   1.501       .  S
C397        C402   1.413       .  A
C397       C2358   1.418   1_455  A
C398        C960   1.485       .  S
C398        C399   1.397       .  A
C398       C2357   1.418       .  A
C399        C400   1.400       .  A
C399        H404   1.084       .  S
C400        C465   1.493       .  S
C400       C2361   1.426       .  A
C401        C420   1.503       .  S
C401        C402   1.415       .  A
C401       C2360   1.425       .  A
C402        H403   1.083       .  S
C405        C406   1.407       .  A
C405        C410   1.421       .  A
C406        C407   1.397       .  A
C406        H415   1.083       .  S
C407        C408   1.410       .  A
C407        S411   1.805       .  S
C408        C409   1.405       .  A
C409        C410   1.406       .  A
C409        H416   1.084       .  S
C410        S412   1.806       .  S
S411        H414   1.405       .  S
S412        H413   1.405       .  S
C417        C418   1.404       .  A
C417        C422   1.419       .  A
C418        C419   1.398       .  A
C418        H427   1.080       .  S
C419        C420   1.416       .  A
C419       S2383   1.800       .  S
C420        C421   1.406       .  A
C421        C422   1.404       .  A
C421        H428   1.083       .  S
C422        S424   1.805       .  S
S423       C2379   1.800       .  S
S423        H426   1.406       .  S
S424        H425   1.407       .  S
C429        C430   1.405       .  A
C429        C434   1.416       .  A
C430        C431   1.402       .  A
C430        H439   1.084       .  S
C431        C432   1.423       .  A
C431        S435   1.803       .  S
C432        C433   1.408       .  A
C433        C434   1.401       .  A
C433        H440   1.082       .  S
C434        S436   1.798       .  S
S435        H438   1.407       .  S
S436        H437   1.407       .  S
C441        C442   1.412       .  A
C441        C446   1.414       .  A
C442        C443   1.404       .  A
C442        H451   1.082       .  S
C443        C444   1.416       .  A
C443        S447   1.807       .  S
C444        C445   1.407       .  A
C445        C446   1.399       .  A
C445        H452   1.084       .  S
C446        S448   1.800       .  S
S447        H450   1.405       .  S
S448        H449   1.406       .  S
C453        C454   1.393       .  A
C453        C458   1.409       .  A
C454        C455   1.390       .  A
C454       H2423   1.081       .  S
C455        C456   1.417       .  A
C455       S2419   1.806       .  S
C456        C457   1.409       .  A
C457        C458   1.410       .  A
C457        H464   1.082       .  S
C458        S460   1.803       .  S
S459       C2415   1.807       .  S
S459       H2422   1.407       .  S
S460        H461   1.407       .  S
H462       S2419   1.407       .  S
H463       C2414   1.081       .  S
C465        C466   1.407       .  A
C465        C470   1.421       .  A
C466        C467   1.402       .  A
C466       H2435   1.084       .  S
C467        C468   1.412       .  A
C467        S471   1.805       .  S
C468        C469   1.399       .  A
C469        C470   1.396       .  A
C469        H476   1.084       .  S
C470        S472   1.808       .  S
S471        H474   1.403       .  S
S472        H473   1.403       .  S
H475       C2426   1.084   1_455  S
C477        C478   1.407       .  A
C477        C482   1.410       .  A
C478        C479   1.401       .  A
C478        H487   1.084       .  S
C479        C480   1.413       .  A
C479        S483   1.805       .  S
C480        C481   1.408       .  A
C481        C482   1.400       .  A
C481        H488   1.083       .  S
C482       S1464   1.803       .  S
S483        H486   1.405       .  S
S484       C1462   1.803       .  S
S484        H485   1.405       .  S
C489        C490   1.406       .  A
C489        C494   1.415       .  A
C490        C491   1.400       .  A
C490        H499   1.084       .  S
C491        C492   1.413       .  A
C491        S495   1.804       .  S
C492        C493   1.401       .  A
C493        C494   1.396       .  A
C493       H1480   1.076       .  S
C494        S496   1.807       .  S
S495        H498   1.406       .  S
S496        H497   1.406       .  S
H500       C1473   1.076       .  S
C501        C502   1.400       .  A
C501        C506   1.407       .  A
C502        C503   1.404       .  A
C502        H511   1.082       .  S
C503        C504   1.432       .  A
C503        S507   1.814       .  S
C504       C1485   1.412       .  A
C505       C1484   1.412       .  A
C505       C1486   1.396       .  A
C505        H512   1.069       .  S
C506       C1485   1.396       .  A
C506       S1488   1.805       .  S
S507        H510   1.407       .  S
S508       C1486   1.805       .  S
S508        H509   1.405       .  S
C513        C514   1.402       .  A
C513        C518   1.410       .  A
C514        C515   1.402       .  A
C514        H523   1.084       .  S
C515        C516   1.417       .  A
C515        S519   1.805       .  S
C516        C517   1.407       .  A
C517        C518   1.393       .  A
C517        H524   1.082       .  S
C518        S520   1.808       .  S
S519        H522   1.406       .  S
S520        H521   1.403       .  S
C525        C526   1.403       .  A
C525        C530   1.413       .  A
C526        C527   1.397       .  A
C526        H535   1.084       .  S
C527        C528   1.414       .  A
C527        S531   1.804       .  S
C528        C529   1.402       .  A
C529        C530   1.400       .  A
C529        H536   1.083       .  S
C530        S532   1.808       .  S
S531        H534   1.406       .  S
S532        H533   1.407       .  S
C537        C538   1.406       .  A
C537        C542   1.419       .  A
C538        C539   1.401       .  A
C538        H547   1.083       .  S
C539        C540   1.411       .  A
C539        S543   1.802       .  S
C540        C541   1.397       .  A
C541        C542   1.395       .  A
C541        H548   1.082       .  S
C542        S544   1.804       .  S
S543        H546   1.405       .  S
S544        H545   1.406       .  S
C549        C550   1.409       .  A
C549        C554   1.415       .  A
C550        C551   1.399       .  A
C550        H559   1.084       .  S
C551        C552   1.411       .  A
C551        S555   1.802       .  S
C552        C553   1.407       .  A
C553        C554   1.406       .  A
C553        H560   1.084       .  S
C554        S556   1.801       .  S
S555        H558   1.405       .  S
S556        H557   1.407   1_554  S
C561        C562   1.407       .  A
C561        C566   1.420       .  A
C562        C563   1.413       .  A
C562        H571   1.082       .  S
C563        C564   1.417       .  A
C563        S567   1.806       .  S
C564        C565   1.402       .  A
C565        C566   1.400       .  A
C565        H572   1.082       .  S
C566        S568   1.812       .  S
S567        H570   1.407       .  S
S568        H569   1.407       .  S
C573        C574   1.403       .  A
C573        C578   1.411       .  A
C574        C575   1.402       .  A
C574        H583   1.083       .  S
C575        C576   1.410       .  A
C575        S579   1.807       .  S
C576        C577   1.404       .  A
C577        C578   1.401       .  A
C577        H584   1.081       .  S
C578        S580   1.804       .  S
S579       H1562   1.407       .  S
S580        H581   1.405       .  S
H582       S1559   1.407       .  S
C585        C586   1.408       .  A
C585        C590   1.420       .  A
C586        C587   1.404       .  A
C586        H595   1.083       .  S
C587        C588   1.412       .  A
C587        S591   1.803       .  S
C588        C589   1.399       .  A
C589        C590   1.396       .  A
C589        H596   1.084       .  S
C590        S592   1.809       .  S
S591        H594   1.406       .  S
S592        H593   1.401       .  S
C597        C598   1.399       .  A
C597        C602   1.418       .  A
C598        C599   1.393       .  A
C598        H607   1.084       .  S
C599        C600   1.415       .  A
C599        S603   1.803       .  S
C600        C601   1.403       .  A
C601        C602   1.408       .  A
C601        H608   1.084       .  S
C602        S604   1.801       .  S
S603        H606   1.407       .  S
S604        H605   1.404       .  S
C609        C610   1.410       .  A
C609        C614   1.419       .  A
C610        C611   1.397       .  A
C610        H619   1.083       .  S
C611        C612   1.414       .  A
C611        S615   1.810       .  S
C612        C613   1.406       .  A
C613        C614   1.407       .  A
C613        H620   1.084       .  S
C614        S616   1.799       .  S
S615        H618   1.399       .  S
S616        H617   1.408       .  S
C621        C622   1.398       .  A
C621        C626   1.415       .  A
C622        C623   1.395       .  A
C622        H631   1.085       .  S
C623        C624   1.420       .  A
C623        S627   1.806       .  S
C624        C625   1.405       .  A
C625        C626   1.408       .  A
C625        H632   1.083       .  S
C626       S2588   1.800       .  S
S627        H630   1.407       .  S
S628       C2586   1.800       .  S
S628        H629   1.405       .  S
C633        C634   1.401       .  A
C633        C638   1.416       .  A
C634        C635   1.400       .  A
C634        H643   1.080       .  S
C635        C636   1.414       .  A
C635        S639   1.809       .  S
C636        C637   1.403       .  A
C637        C638   1.405       .  A
C637        H644   1.084       .  S
C638       S1620   1.802       .  S
S639        H642   1.407       .  S
S640       C1618   1.802       .  S
S640        H641   1.400       .  S
C645        C646   1.406       .  A
C645        C650   1.421       .  A
C646        C647   1.400       .  A
C646        H655   1.083       .  S
C647        C648   1.412       .  A
C647        S651   1.804       .  S
C648        C649   1.403       .  A
C649        C650   1.406       .  A
C649        H656   1.084       .  S
C650        S652   1.807       .  S
S651        H654   1.407       .  S
S652        H653   1.402       .  S
C657        C658   1.409       .  A
C657        C662   1.415       .  A
C658        C659   1.409       .  A
C658        H667   1.083       .  S
C659        C660   1.413       .  A
C659        S663   1.801       .  S
C660        C661   1.407       .  A
C661        C662   1.407       .  A
C661        H668   1.084       .  S
C662        S664   1.803       .  S
S663        H666   1.405       .  S
S664        H665   1.407       .  S
C669        C670   1.398       .  A
C669        C674   1.417       .  A
C670        C671   1.392       .  A
C670        H679   1.084       .  S
C671        C672   1.420       .  A
C671        S675   1.806       .  S
C672        C673   1.407       .  A
C673        C674   1.411       .  A
C673        H680   1.083       .  S
C674        S676   1.804       .  S
S675        H678   1.408       .  S
S676        H677   1.400       .  S
C681        C682   1.402       .  A
C681        C686   1.422       .  A
C682        C683   1.406       .  A
C682        H691   1.082       .  S
C683        C684   1.420       .  A
C683        S687   1.809       .  S
C684        C685   1.401       .  A
C685        C686   1.401       .  A
C685        H692   1.084       .  S
C686        S688   1.808       .  S
S687        H690   1.407       .  S
S688        H689   1.403       .  S
C693        C694   1.406       .  A
C693        C698   1.417       .  A
C694        C695   1.401       .  A
C694        H703   1.084       .  S
C695        C696   1.421       .  A
C695        S699   1.803       .  S
C696        C697   1.410       .  A
C697        C698   1.404       .  A
C697        H704   1.083       .  S
C698        S700   1.803       .  S
S699        H702   1.404       .  S
S700        H701   1.406       .  S
C705        C706   1.408       .  A
C705        C710   1.425       .  A
C706        C707   1.400       .  A
C706        H715   1.084       .  S
C707        C708   1.413       .  A
C707        S711   1.803       .  S
C708        C709   1.401       .  A
C709        C710   1.399       .  A
C709       H1696   1.084       .  S
C710        S712   1.804       .  S
S711        H714   1.407       .  S
S712        H713   1.405       .  S
H716       C1689   1.084       .  S
C717        C718   1.412       .  A
C717        C722   1.415       .  A
C718        C719   1.402       .  A
C718        H727   1.084       .  S
C719        C720   1.412       .  A
C719        S723   1.806       .  S
C720        C721   1.407       .  A
C721        C722   1.398       .  A
C721        H728   1.085       .  S
C722        S724   1.798       .  S
S723        H726   1.404       .  S
S724        H725   1.406       .  S
C729        C730   1.406       .  A
C729        C734   1.410       .  A
C730        C731   1.398       .  A
C730        H739   1.084       .  S
C731        C732   1.413       .  A
C731        S735   1.804       .  S
C732        C733   1.409       .  A
C733        C734   1.397       .  A
C733        H740   1.084       .  S
C734        S736   1.806       .  S
S735        H738   1.405       .  S
S736        H737   1.405       .  S
C741        C742   1.405       .  A
C741        C746   1.391       .  A
C742        C743   1.479   1_455  A
C742        H751   1.062   1_455  S
C743        C744   1.521   1_655  A
C743       S2707   3.414       .  S
C744        C745   1.409       .  A
C745        C746   1.377       .  A
C745        H752   1.080       .  S
C746        S748   1.809       .  S
S747       C2703   3.414       .  S
S747        H750   1.422       .  S
S748        H749   1.405       .  S
C753        C754   1.399       .  A
C753        C758   1.409       .  A
C754        C755   1.395       .  A
C754        H763   1.084       .  S
C755        C756   1.415       .  A
C755        S759   1.802       .  S
C756        C757   1.408       .  A
C757        C758   1.406       .  A
C757        H764   1.083   1_545  S
C758        S760   1.805       .  S
S759        H762   1.406       .  S
S760        H761   1.406   1_545  S
C765        C766   1.401       .  A
C765        C770   1.409       .  A
C766        C767   1.406       .  A
C766        H775   1.084       .  S
C767        C768   1.424       .  A
C767        S771   1.804       .  S
C768        C769   1.411       .  A
C769        C770   1.401       .  A
C769        H776   1.081       .  S
C770       S1752   1.810       .  S
S771        H774   1.406       .  S
S772       C1750   1.810       .  S
S772        H773   1.407       .  S
C777        C778   1.410       .  A
C777        C782   1.421       .  A
C778        C779   1.397       .  A
C778        H787   1.082       .  S
C779        C780   1.414       .  A
C779        S783   1.811       .  S
C780        C781   1.402       .  A
C781        C782   1.403       .  A
C781        H788   1.084       .  S
C782        S784   1.806       .  S
S783        H786   1.401       .  S
S784        H785   1.406       .  S
C789        C790   1.701       .  A
C789        C794   1.728       .  A
C790        C791   1.666       .  A
C790        H799   1.077       .  S
C791        C792   1.691       .  A
C791        S795   1.791       .  S
C792        C793   1.709       .  A
C793        C794   1.698       .  A
C793        H800   1.082       .  S
C794        S796   1.804       .  S
S795        H798   1.403       .  S
S796        H797   1.391       .  S
C801        C802   1.407       .  A
C801        C806   1.416       .  A
C802        C803   1.398       .  A
C802        H811   1.083       .  S
C803        C804   1.414       .  A
C803        S807   1.805       .  S
C804        C805   1.403       .  A
C805        C806   1.397       .  A
C805        H812   1.083       .  S
C806        S808   1.802       .  S
S807        H810   1.406       .  S
S808        H809   1.406       .  S
C813        C814   1.410       .  A
C813        C818   1.411       .  A
C814        C815   1.403       .  A
C814        H823   1.083       .  S
C815        C816   1.413       .  A
C815        S819   1.803       .  S
C816        C817   1.405       .  A
C817        C818   1.393       .  A
C817        H824   1.084       .  S
C818        S820   1.798       .  S
S819        H822   1.406       .  S
S820        H821   1.406       .  S
C825        C826   1.410       .  A
C825        C830   1.418       .  A
C826        C827   1.405       .  A
C826        H835   1.083       .  S
C827        C828   1.419       .  A
C827        S831   1.804       .  S
C828        C829   1.409       .  A
C829        C830   1.402       .  A
C829        H836   1.083       .  S
C830        S832   1.804       .  S
S831        H834   1.406       .  S
S832        H833   1.407       .  S
C837        C838   1.407       .  A
C837        C842   1.413       .  A
C838        C839   1.402       .  A
C838        H847   1.083       .  S
C839        C840   1.409       .  A
C839        S843   1.805       .  S
C840        C841   1.410       .  A
C841        C842   1.409       .  A
C841        H848   1.084       .  S
C842        S844   1.802       .  S
S843        H846   1.406       .  S
S844        H845   1.406       .  S
C849        C850   1.404       .  A
C849        C854   1.427       .  A
C850        C851   1.403       .  A
C850        H859   1.084       .  S
C851        C852   1.415       .  A
C851        S855   1.798       .  S
C852        C853   1.396       .  A
C853        C854   1.396       .  A
C853        H860   1.085       .  S
C854        S856   1.806       .  S
S855       H1838   1.406       .  S
S856        H857   1.408       .  S
H858       S1835   1.406       .  S
C861        C862   1.401       .  A
C861        C866   1.417       .  A
C862        C863   1.398       .  A
C862        H871   1.085       .  S
C863        C864   1.422       .  A
C863        S867   1.806       .  S
C864        C865   1.408       .  A
C865        C866   1.409       .  A
C865        H872   1.083       .  S
C866        S868   1.802       .  S
S867        H870   1.408       .  S
S868        H869   1.404       .  S
C873        C874   1.401       .  A
C873        C878   1.413       .  A
C874        C875   1.404       .  A
C874        H883   1.084       .  S
C875        C876   1.421       .  A
C875        S879   1.806       .  S
C876        C877   1.405       .  A
C877        C878   1.404       .  A
C877        H884   1.079       .  S
C878        S880   1.804       .  S
S879        H882   1.405       .  S
S880        H881   1.406       .  S
C885        C886   1.403       .  A
C885        C890   1.413       .  A
C886        C887   1.401       .  A
C886        H895   1.084       .  S
C887        C888   1.416       .  A
C887        S891   1.800       .  S
C888        C889   1.406       .  A
C889        C890   1.396       .  A
C889        H896   1.084       .  S
C890        S892   1.801       .  S
S891        H894   1.407       .  S
S892        H893   1.404       .  S
C897        C898   1.402       .  A
C897        C902   1.407       .  A
C898        C899   1.400       .  A
C898        H907   1.084       .  S
C899        C900   1.415       .  A
C899        S903   1.798       .  S
C900        C901   1.409       .  A
C901        C902   1.398       .  A
C901        H908   1.084       .  S
C902        S904   1.804       .  S
S903        H906   1.406       .  S
S904        H905   1.407       .  S
C909        C910   1.402       .  A
C909        C914   1.410       .  A
C910        C911   1.399       .  A
C910        H919   1.084       .  S
C911        C912   1.416       .  A
C911        S915   1.809       .  S
C912        C913   1.404       .  A
C913        C914   1.400       .  A
C913        H920   1.081       .  S
C914        S916   1.799       .  S
S915        H918   1.398       .  S
S916        H917   1.405   1_556  S
C921        C922   1.399       .  A
C921        C926   1.416       .  A
C922        C923   1.403       .  A
C922        H931   1.084       .  S
C923        C924   1.424       .  A
C923        S927   1.803   1_554  S
C924        C925   1.403       .  A
C925        C926   1.405       .  A
C925        H932   1.082       .  S
C926        S928   1.809       .  S
S927        H930   1.402       .  S
S928        H929   1.406       .  S
C933        C934   1.404       .  A
C933        C938   1.418       .  A
C934        C935   1.395       .  A
C934        H943   1.084       .  S
C935        C936   1.414       .  A
C935        S939   1.801       .  S
C936        C937   1.407       .  A
C937        C938   1.411       .  A
C937        H944   1.083       .  S
C938        S940   1.802       .  S
S939        H942   1.401       .  S
S940        H941   1.407       .  S
C945        C946   1.403       .  A
C945        C950   1.413       .  A
C946        C947   1.403       .  A
C946        H955   1.084       .  S
C947        C948   1.414       .  A
C947       S1931   1.804       .  S
C948        C949   1.400       .  A
C949        C950   1.399       .  A
C949        H956   1.081       .  S
C950        S952   1.808       .  S
S951       C1927   1.805       .  S
S951        H954   1.402       .  S
S952        H953   1.407       .  S
C957        C958   1.413       .  A
C957        C962   1.418       .  A
C958        C959   1.394       .  A
C958        H967   1.083       .  S
C959        C960   1.408       .  A
C959        S963   1.805       .  S
C960        C961   1.406       .  A
C961        C962   1.406       .  A
C961        H968   1.084       .  S
C962        S964   1.801       .  S
S963       H2926   1.405       .  S
S964        H965   1.408       .  S
H966       S2923   1.405       .  S
C969        C970   1.404       .  A
C969        C974   1.429       .  A
C970        C971   1.405       .  A
C970        H979   1.084       .  S
C971        C972   1.418       .  A
C971        S975   1.805       .  S
C972        C973   1.396       .  A
C973        C974   1.406       .  A
C973        H980   1.083       .  S
C974        S976   1.812       .  S
S975        H978   1.402       .  S
S976        H977   1.407       .  S
O981       Ni987   1.927       .  S
O981       C1002   1.271       .  A
O982      Ni1005   1.944   1_556  S
O982        C991   1.280       .  A
O983       Ni987   1.896       .  S
O983      Ni1005   1.917       .  S
O983       Ni999   1.915       .  S
O983       H1006   0.966       .  S
C984       O1001   1.280       .  A
C984        O993   1.279       .  A
C984       C1889   1.476       .  S
O985      Ni1004   1.912       .  S
O985        C991   1.264       .  A
O986      Ni1004   1.904       .  S
O986        C988   1.265   1_556  A
Ni987       O990   1.921       .  S
Ni987       O992   1.897       .  S
C988        O998   1.278       .  A
C988       C1904   1.495       .  S
O989      Ni1005   1.927       .  S
O989        C995   1.280       .  A
O990        C995   1.277       .  A
C991       C1949   1.499       .  S
O992        C994   1.268   1_554  A
O993      Ni1004   1.918       .  S
C994       O1000   1.278       .  A
C994       C1913   1.492       .  S
C995       C1937   1.498       .  S
H996        O997   0.965       .  S
O997      Ni1005   1.916   1_556  S
O997       Ni999   1.889   1_556  S
O997      Ni1004   1.879       .  S
O998       Ni999   1.946       .  S
Ni999      O1003   1.914       .  S
Ni999      O1001   1.935   1_554  S
O1000     Ni1005   1.956   1_556  S
C1002      O1003   1.270       .  A
C1002      C1925   1.479       .  S
O1007     Ni1013   1.912       .  S
O1007      C1028   1.268       .  A
O1008     Ni1031   1.912       .  S
O1008      C1017   1.265       .  A
O1009     Ni1013   1.894       .  S
O1009     Ni1031   1.897       .  S
O1009     Ni1025   1.930       .  S
O1009      H1032   0.966       .  S
C1010      O1027   1.288       .  A
C1010      O1019   1.273       .  A
C1010      C1829   1.492       .  S
O1011     Ni1030   1.920       .  S
O1011      C1017   1.268       .  A
O1012     Ni1030   1.892       .  S
O1012      C1014   1.264       .  A
Ni1013     O1016   1.926       .  S
Ni1013     O1018   1.906       .  S
C1014      O1024   1.279       .  A
C1014      C1844   1.497       .  S
O1015     Ni1031   1.919       .  S
O1015      C1021   1.276       .  A
O1016      C1021   1.280       .  A
C1017      C1868   1.485       .  S
O1018      C1020   1.265       .  A
O1019     Ni1030   1.908       .  S
C1020      O1026   1.275       .  A
C1020      C1853   1.484       .  S
C1021      C1877   1.470       .  S
H1022      O1023   0.967       .  S
O1023     Ni1031   1.911       .  S
O1023     Ni1025   1.913       .  S
O1023     Ni1030   1.902       .  S
O1024     Ni1025   1.958       .  S
Ni1025     O1029   1.946       .  S
Ni1025     O1027   1.944       .  S
O1026     Ni1031   1.945       .  S
C1028      O1029   1.280       .  A
C1028      C1817   1.488       .  S
N1033      H1065   1.043       .  S
N1033      C1037   1.353       .  A
N1034      C1041   1.346       .  A
N1034      C1042   1.354       .  A
N1035      H1066   1.044       .  S
N1035      C1039   1.358       .  A
N1036      C1043   1.353       .  A
N1036      C1044   1.349       .  A
C1037      C1045   1.391       .  A
C1037      C1053   1.424       .  A
C1038      C1054   1.420       .  A
C1038      C1046   1.385       .  A
C1039      C1047   1.390       .  A
C1039      C1056   1.428       .  A
C1040      C1055   1.415       .  A
C1040      C1048   1.385   1_565  A
C1041      C1053   1.411       .  A
C1041      C1049   1.387       .  A
C1042      C1056   1.415       .  A
C1042      C1050   1.381       .  A
C1043      C1051   1.385       .  A
C1043      C1054   1.415       .  A
C1044      C1052   1.388       .  A
C1044      C1055   1.416       .  A
C1045      H1057   1.081       .  S
C1046      H1058   1.082       .  S
C1047      H1059   1.075       .  S
C1048      H1060   1.077   1_545  S
C1049      C1050   1.379       .  A
C1049      H1061   1.076       .  S
C1050      H1062   1.080       .  S
C1051      C1052   1.375       .  A
C1051      H1063   1.082       .  S
C1052      H1064   1.081       .  S
C1053      C1796   1.491       .  S
C1054      C1805   1.513       .  S
C1055      C1784   1.491       .  S
C1056      C1769   1.529       .  S
N1067      H1099   1.044       .  S
N1067      C1072   1.350       .  A
N1067      C1071   1.351       .  A
N1068      C1075   1.354       .  A
N1068      C1076   1.347       .  A
N1069      H1100   1.041       .  S
N1069      C1074   1.351       .  A
N1069      C1073   1.348       .  A
N1070      C1077   1.352       .  A
N1070      C1078   1.350       .  A
C1071      C1079   1.387       .  A
C1071      C1087   1.418       .  A
C1072      C1088   1.417       .  A
C1072      C1080   1.388       .  A
C1073      C1081   1.386       .  A
C1073      C1090   1.409       .  A
C1074      C1089   1.413       .  A
C1074      C1082   1.388       .  A
C1075      C1087   1.417       .  A
C1075      C1083   1.387       .  A
C1076      C1090   1.407       .  A
C1076      C1084   1.376       .  A
C1077      C1085   1.386       .  A
C1077      C1088   1.415       .  A
C1078      C1086   1.378       .  A
C1078      C1089   1.410       .  A
C1079      C1080   1.384       .  A
C1079      H1091   1.082       .  S
C1080      H1092   1.082       .  S
C1081      C1082   1.383       .  A
C1081      H1093   1.082       .  S
C1082      H1094   1.082       .  S
C1083      C1084   1.378       .  A
C1083      H1095   1.082       .  S
C1084      H1096   1.076       .  S
C1085      C1086   1.376       .  A
C1085      H1097   1.082       .  S
C1086      H1098   1.072   1_455  S
C1087      C1748   1.513       .  S
C1088      C1757   1.509       .  S
C1089      C1721   1.500       .  S
C1090      C1733   1.484       .  S
N1101      H1133   1.043       .  S
N1101      C3066   1.355   1_455  A
N1101      C1105   1.356       .  A
N1102      C1109   1.348       .  A
N1102      C1110   1.346       .  A
N1103      H1134   1.038       .  S
N1103      C3068   1.354   1_455  A
N1103      C1107   1.357       .  A
N1104      C1111   1.353       .  A
N1104      C1112   1.350       .  A
C1105      C1113   1.387       .  A
C1105      C1121   1.422       .  A
C1106      N3061   1.355       .  A
C1106      C1122   1.418       .  A
C1106      C1114   1.386       .  A
C1107      C1115   1.388       .  A
C1107      C1124   1.423       .  A
C1108      N3063   1.354       .  A
C1108      C1123   1.418       .  A
C1108      C1116   1.388       .  A
C1109      C1121   1.412       .  A
C1109      C1117   1.384       .  A
C1110      C1124   1.410       .  A
C1110      C1118   1.386       .  A
C1111      C1119   1.385       .  A
C1111      C1122   1.415       .  A
C1112      C1120   1.388       .  A
C1112      C1123   1.415       .  A
C1113      C3074   1.376   1_455  A
C1113      H1125   1.081       .  S
C1114      C3073   1.376       .  A
C1114      H1126   1.082       .  S
C1115      C3076   1.372   1_455  A
C1115      H1127   1.082       .  S
C1116      C3075   1.372       .  A
C1116      H1128   1.082       .  S
C1117      C1118   1.376       .  A
C1117      H1129   1.082       .  S
C1118      H1130   1.078       .  S
C1119      C1120   1.376       .  A
C1119      H1131   1.082       .  S
C1120      H1132   1.081       .  S
C1121      C1685   1.506       .  S
C1122      C1673   1.507       .  S
C1123      C1709   1.486       .  S
C1124      C1700   1.496       .  S
C1135      C1820   1.493       .  S
C1135      C3096   1.424       .  A
C1135      C1140   1.405       .  A
C1136      C1661   1.496       .  S
C1136      C3095   1.424   1_455  A
C1136      C1137   1.407       .  A
C1137      C1138   1.401       .  A
C1137      H1142   1.084       .  S
C1138      C1760   1.486       .  S
C1138      C3099   1.421   1_455  A
C1139      C1793   1.498       .  S
C1139      C3098   1.421       .  A
C1139      C1140   1.406       .  A
C1140      H1141   1.084       .  S
C1143      C1649   1.483       .  S
C1143      C1148   1.402       .  A
C1144      C1841   1.491       .  S
C1144      C1145   1.409       .  A
C1145      C1146   1.409       .  A
C1145      H1150   1.085       .  S
C1146      C1745   1.485       .  S
C1147      C1697   1.500       .  S
C1147      C1148   1.403       .  A
C1148      H1149   1.086       .  S
C1151      C1640   1.496       .  S
C1151      C1152   1.417       .  A
C1151      C1156   1.404       .  A
C1152      C1952   1.488       .  S
C1152      C1153   1.408       .  A
C1153      C1154   1.408       .  A
C1153      H1158   1.083       .  S
C1154      C1676   1.510       .  S
C1154      C1155   1.428       .  A
C1155      C1781   1.498       .  S
C1155      C1156   1.411       .  A
C1156      H1157   1.084       .  S
C1159      C1625   1.499       .  S
C1159      C1160   1.417       .  A
C1159      C1164   1.415       .  A
C1160      C1880   1.491       .  S
C1160      C1161   1.398       .  A
C1161      C1162   1.398       .  A
C1161      H1166   1.085       .  S
C1162      C1712   1.489       .  S
C1162      C1163   1.426       .  A
C1163      C1808   1.511       .  S
C1163      C1164   1.418       .  A
C1164      H1165   1.083       .  S
C1167      C1892   1.482       .  S
C1167      C1172   1.403       .  A
C1168      C1613   1.485       .  S
C1168      C1169   1.405       .  A
C1169      C1170   1.405       .  A
C1169      H1174   1.084       .  S
C1170      C1688   1.491       .  S
C1171      C1736   1.492       .  S
C1171      C1172   1.403       .  A
C1172      H1173   1.085       .  S
C1175      C1916   1.493       .  S
C1175      C3136   1.421       .  A
C1175      C1180   1.404       .  A
C1176      C1601   1.485       .  S
C1176      C3135   1.422   1_455  A
C1176      C1177   1.417       .  A
C1177      C1178   1.418   1_455  A
C1177      H1182   1.081       .  S
C1178      C1724   1.531   1_655  S
C1178      C3139   1.373       .  A
C1179      C1772   1.410       .  S
C1179      C3138   1.372       .  A
C1179      C1180   1.394       .  A
C1180      H1181   1.084       .  S
O1183     Ni1189   1.927       .  S
O1183      C1204   1.270       .  A
O1184     Ni1207   1.945       .  S
O1184      C1193   1.277       .  A
O1185     Ni1189   1.904       .  S
O1185     Ni1207   1.923       .  S
O1185     Ni1201   1.921       .  S
O1185      H1208   0.967       .  S
C1186      O1203   1.284       .  A
C1186      O1195   1.277       .  A
C1186      C1568   1.474       .  S
O1187     Ni1206   1.902       .  S
O1187      C1193   1.263       .  A
O1188     Ni1206   1.899       .  S
O1188      C1190   1.264       .  A
Ni1189     O1192   1.920       .  S
Ni1189     O1194   1.895       .  S
C1190      O1200   1.277       .  A
C1190      C1664   1.492       .  S
O1191     Ni1207   1.936       .  S
O1191      C1197   1.282       .  A
O1192      C1197   1.274       .  A
C1193      C1580   1.481       .  S
O1194      C1196   1.267       .  A
O1195     Ni1206   1.907       .  S
C1196      O1202   1.277       .  A
C1196      C1589   1.500       .  S
C1197      C1652   1.491       .  S
H1198      O1199   0.966       .  S
O1199     Ni1207   1.926       .  S
O1199     Ni1201   1.895       .  S
O1199     Ni1206   1.892       .  S
O1200     Ni1201   1.947       .  S
Ni1201     O1205   1.925       .  S
Ni1201     O1203   1.943       .  S
O1202     Ni1207   1.952       .  S
C1204      O1205   1.271       .  A
C1204      C1628   1.482       .  S
O1209     Ni1215   1.922       .  S
O1209      C1230   1.272       .  A
O1210     Ni1233   1.921       .  S
O1210      C1219   1.272       .  A
O1211     Ni1215   1.892       .  S
O1211     Ni1233   1.899   1_554  S
O1211     Ni1227   1.915   1_554  S
O1211      H1234   0.965       .  S
C1212      O1229   1.280       .  A
C1212      O1221   1.275       .  A
C1212      C1604   1.486       .  S
O1213     Ni1232   1.921       .  S
O1213      C1219   1.269       .  A
O1214     Ni1232   1.891   1_554  S
O1214      C1216   1.263       .  A
Ni1215     O1218   1.918       .  S
Ni1215     O1220   1.918       .  S
C1216      O1226   1.281       .  A
C1216      C1541   1.497       .  S
O1217     Ni1233   1.933   1_554  S
O1217      C1223   1.279       .  A
O1218      C1223   1.277       .  A
C1219      C1616   1.481       .  S
O1220      C1222   1.269   1_554  A
O1221     Ni1232   1.925       .  S
C1222      O1228   1.278       .  A
C1222      C1637   1.495       .  S
C1223      C1553   1.471       .  S
H1224      O1225   0.960       .  S
O1225     Ni1233   1.914       .  S
O1225     Ni1227   1.917       .  S
O1225     Ni1232   1.899       .  S
O1226     Ni1227   1.969   1_554  S
Ni1227     O1231   1.934   1_556  S
Ni1227     O1229   1.928       .  S
O1228     Ni1233   1.949       .  S
C1230      O1231   1.277       .  A
C1230      C1529   1.494       .  S
N1235      H1267   1.040       .  S
N1235      C1240   1.348       .  A
N1235      C3199   1.349       .  A
N1236      C1243   1.353       .  A
N1236      C1244   1.347       .  A
N1237      H1268   1.037       .  S
N1237      C1242   1.355       .  A
N1237      C3201   1.355       .  A
N1238      C1245   1.355       .  A
N1238      C1246   1.353       .  A
C1239      N3195   1.349   1_455  A
C1239      C1247   1.385       .  A
C1239      C1255   1.408       .  A
C1240      C1256   1.411       .  A
C1240      C1248   1.388       .  A
C1241      N3197   1.355   1_455  A
C1241      C1249   1.383       .  A
C1241      C1258   1.416       .  A
C1242      C1257   1.424       .  A
C1242      C1250   1.391       .  A
C1243      C1255   1.415       .  A
C1243      C1251   1.387       .  A
C1244      C1258   1.410       .  A
C1244      C1252   1.380       .  A
C1245      C1253   1.383       .  A
C1245      C1256   1.417       .  A
C1246      C1254   1.389       .  A
C1246      C1257   1.424       .  A
C1247      C3208   1.378   1_455  A
C1247      H1259   1.082       .  S
C1248      C3207   1.378       .  A
C1248      H1260   1.082       .  S
C1249      C3210   1.370   1_455  A
C1249      H1261   1.082       .  S
C1250      C3209   1.370       .  A
C1250      H1262   1.078       .  S
C1251      C1252   1.368       .  A
C1251      H1263   1.079       .  S
C1252      H1264   1.076       .  S
C1253      C1254   1.367       .  A
C1253      H1265   1.081       .  S
C1254      H1266   1.079       .  S
C1255      C1517   1.496       .  S
C1256      C1496   1.497       .  S
C1257      C1481   1.498       .  S
C1258      C1508   1.487       .  S
N1269      H1301   1.041       .  S
N1269      C1274   1.350       .  A
N1269      C1273   1.350       .  A
N1270      C1277   1.350       .  A
N1270      C1278   1.347       .  A
N1271      H1302   1.041       .  S
N1271      C1276   1.352       .  A
N1271      C1275   1.354       .  A
N1272      C1279   1.352       .  A
N1272      C1280   1.350       .  A
C1273      C1281   1.388       .  A
C1273      C1289   1.413       .  A
C1274      C1290   1.408       .  A
C1274      C1282   1.385       .  A
C1275      C1283   1.386       .  A
C1275      C1292   1.414       .  A
C1276      C1291   1.417       .  A
C1276      C1284   1.387       .  A
C1277      C1289   1.413       .  A
C1277      C1285   1.387       .  A
C1278      C1292   1.409       .  A
C1278      C1286   1.384       .  A
C1279      C1287   1.385       .  A
C1279      C1290   1.415       .  A
C1280      C1288   1.387       .  A
C1280      C1291   1.415       .  A
C1281      C1282   1.377       .  A
C1281      H1293   1.082       .  S
C1282      H1294   1.082       .  S
C1283      C1284   1.378       .  A
C1283      H1295   1.082       .  S
C1284      H1296   1.082       .  S
C1285      C1286   1.379       .  A
C1285      H1297   1.082       .  S
C1286      H1298   1.079       .  S
C1287      C1288   1.375       .  A
C1287      H1299   1.082       .  S
C1288      H1300   1.082       .  S
C1289      C1436   1.495       .  S
C1290      C1460   1.492       .  S
C1291      C1469   1.494       .  S
C1292      C1448   1.484       .  S
C1303      C1832   1.483       .  S
C1303      C1308   1.402       .  A
C1304      C1592   1.487       .  S
C1304      C1305   1.403       .  A
C1305      C1306   1.406       .  A
C1305      H1310   1.085       .  S
C1306      C1457   1.481       .  S
C1307      C1484   1.525       .  S
C1307      C1308   1.407       .  A
C1308      H1309   1.081       .  S
N1311      H1343   1.040       .  S
N1311      C1316   1.359   1_545  A
N1312      C1319   1.352       .  A
N1312      C1320   1.353       .  A
N1313      H1344   1.040   1_565  S
N1313      C1318   1.353       .  A
N1314      C1321   1.355       .  A
N1314      C1322   1.356       .  A
C1315      C1323   1.385       .  A
C1315      C1331   1.424       .  A
C1316      C1332   1.430       .  A
C1316      C1324   1.391       .  A
C1317      C1325   1.391       .  A
C1317      C1334   1.426       .  A
C1318      C1333   1.417       .  A
C1318      C1326   1.385       .  A
C1319      C1331   1.418       .  A
C1319      C1327   1.386       .  A
C1320      C1334   1.419       .  A
C1320      C1328   1.386       .  A
C1321      C1329   1.387       .  A
C1321      C1332   1.424       .  A
C1322      C1330   1.385       .  A
C1322      C1333   1.422       .  A
C1323      H1335   1.081       .  S
C1324      H1336   1.079       .  S
C1325      H1337   1.080       .  S
C1326      H1338   1.082       .  S
C1327      C1328   1.375       .  A
C1327      H1339   1.082       .  S
C1328      H1340   1.079       .  S
C1329      C1330   1.371       .  A
C1329      H1341   1.079       .  S
C1330      H1342   1.081       .  S
C1331      C1409   1.511       .  S
C1332      C1385   1.508       .  S
C1333      C1397   1.507       .  S
C1334      C1424   1.506       .  S
C1345      C1928   1.477       .  S
C1345      C1350   1.401       .  A
C1346      C1556   1.481       .  S
C1346      C1347   1.405       .  A
C1347      C1348   1.402       .  A
C1347      H1352   1.085       .  S
C1348      C1472   1.486       .  S
C1349      C1493   1.476       .  S
C1349      C1350   1.397       .  A
C1350      H1351   1.085       .  S
C1353      C1865   1.483       .  S
C1353      C1354   1.414       .  A
C1353      C1358   1.408       .  A
C1354      C1565   1.493       .  S
C1354      C1355   1.401       .  A
C1355      C1356   1.403       .  A
C1355      H1360   1.084       .  S
C1356      C1505   1.483       .  S
C1356      C1357   1.425       .  A
C1357      C1412   1.511       .  S
C1357      C1358   1.408       .  A
C1358      H1359   1.083       .  S
C1361      C1532   1.489       .  S
C1361      C1362   1.419       .  A
C1361      C1366   1.403       .  A
C1362      C1901   1.492       .  S
C1362      C1363   1.407       .  A
C1363      C1364   1.407       .  A
C1363      H1368   1.085       .  S
C1364      C1421   1.507       .  S
C1364      C1365   1.423       .  A
C1365      C1520   1.478       .  S
C1365      C1366   1.402       .  A
C1366      H1367   1.085       .  S
C1369      C1577   1.486       .  S
C1369      C3330   1.426   1_455  A
C1369      C1374   1.406       .  A
C1370      C1856   1.499       .  S
C1370      C3329   1.426       .  A
C1370      C1371   1.409       .  A
C1371      C1372   1.401       .  A
C1371      H1376   1.085       .  S
C1372      C1433   1.483       .  S
C1372      C3333   1.416       .  A
C1373      C1388   1.492       .  S
C1373      C3332   1.417   1_455  A
C1373      C1374   1.400       .  A
C1374      H1375   1.085       .  S
C1377      C1544   1.502       .  S
C1377      C3338   1.418   1_455  A
C1377      C1382   1.413       .  A
C1378      C1940   1.486       .  S
C1378      C3337   1.419       .  A
C1378      C1379   1.397       .  A
C1379      C1380   1.400       .  A
C1379      H1384   1.085       .  S
C1380      C1445   1.491       .  S
C1380      C3341   1.425       .  A
C1381      C1400   1.503       .  S
C1381      C3340   1.426       .  A
C1381      C1382   1.415       .  A
C1382      H1383   1.083       .  S
C1385      C1386   1.407       .  A
C1385      C1390   1.421       .  A
C1386      C1387   1.396       .  A
C1386      H1395   1.083       .  S
C1387      C1388   1.409       .  A
C1387      S1391   1.805       .  S
C1388      C1389   1.405       .  A
C1389      C1390   1.406       .  A
C1389      H1396   1.084       .  S
C1390      S1392   1.806       .  S
S1391      H1394   1.405       .  S
S1392      H1393   1.405       .  S
C1397      C1398   1.403       .  A
C1397      C1402   1.420       .  A
C1398      C1399   1.397       .  A
C1398      H1407   1.080       .  S
C1399      C1400   1.416       .  A
C1399      S3363   1.800       .  S
C1400      C1401   1.407       .  A
C1401      C1402   1.404       .  A
C1401      H1408   1.083       .  S
C1402      S1404   1.805       .  S
S1403      C3359   1.800       .  S
S1403      H1406   1.406       .  S
S1404      H1405   1.407       .  S
C1409      C1410   1.405       .  A
C1409      C1414   1.416       .  A
C1410      C1411   1.403       .  A
C1410      H1419   1.084       .  S
C1411      C1412   1.423       .  A
C1411      S1415   1.803       .  S
C1412      C1413   1.407       .  A
C1413      C1414   1.401       .  A
C1413      H1420   1.082       .  S
C1414      S1416   1.798       .  S
S1415      H1418   1.407       .  S
S1416      H1417   1.407       .  S
C1421      C1422   1.412       .  A
C1421      C1426   1.415       .  A
C1422      C1423   1.404       .  A
C1422      H1431   1.082       .  S
C1423      C1424   1.417       .  A
C1423      S1427   1.807       .  S
C1424      C1425   1.408       .  A
C1425      C1426   1.400       .  A
C1425      H1432   1.084       .  S
C1426      S1428   1.800       .  S
S1427      H1430   1.405       .  S
S1428      H1429   1.405       .  S
C1433      C1434   1.394       .  A
C1433      C1438   1.410       .  A
C1434      C1435   1.390       .  A
C1434      H3403   1.081       .  S
C1435      C1436   1.416       .  A
C1435      S3399   1.807       .  S
C1436      C1437   1.408       .  A
C1437      C1438   1.410       .  A
C1437      H1444   1.082       .  S
C1438      S1440   1.803       .  S
S1439      C3395   1.807       .  S
S1439      H3402   1.407       .  S
S1440      H1441   1.407       .  S
H1442      S3399   1.407       .  S
H1443      C3394   1.081       .  S
C1445      C1446   1.407       .  A
C1445      C1450   1.420       .  A
C1446      C1447   1.402       .  A
C1446      H3415   1.084       .  S
C1447      C1448   1.412       .  A
C1447      S1451   1.805       .  S
C1448      C1449   1.399       .  A
C1449      C1450   1.397       .  A
C1449      H1456   1.084       .  S
C1450      S1452   1.808       .  S
S1451      H1454   1.403       .  S
S1452      H1453   1.403       .  S
H1455      C3406   1.084   1_455  S
C1457      C1458   1.406       .  A
C1457      C1462   1.410       .  A
C1458      C1459   1.401       .  A
C1458      H1467   1.084       .  S
C1459      C1460   1.412       .  A
C1459      S1463   1.804       .  S
C1460      C1461   1.408       .  A
C1461      C1462   1.401       .  A
C1461      H1468   1.083       .  S
S1463      H1466   1.405       .  S
S1464      H1465   1.405       .  S
C1469      C1470   1.406       .  A
C1469      C1474   1.415       .  A
C1470      C1471   1.401       .  A
C1470      H1479   1.084       .  S
C1471      C1472   1.412       .  A
C1471      S1475   1.803       .  S
C1472      C1473   1.401       .  A
C1473      C1474   1.396       .  A
C1474      S1476   1.806       .  S
S1475      H1478   1.406       .  S
S1476      H1477   1.406       .  S
C1481      C1482   1.400       .  A
C1481      C1486   1.406       .  A
C1482      C1483   1.404       .  A
C1482      H1491   1.082       .  S
C1483      C1484   1.433       .  A
C1483      S1487   1.814       .  S
C1485      H1492   1.070   1_545  S
S1487      H1490   1.407       .  S
S1488      H1489   1.405       .  S
C1493      C1494   1.403       .  A
C1493      C1498   1.411       .  A
C1494      C1495   1.401       .  A
C1494      H1503   1.084       .  S
C1495      C1496   1.415       .  A
C1495      S1499   1.804       .  S
C1496      C1497   1.407       .  A
C1497      C1498   1.393       .  A
C1497      H1504   1.081       .  S
C1498      S1500   1.808       .  S
S1499      H1502   1.406       .  S
S1500      H1501   1.403       .  S
C1505      C1506   1.403       .  A
C1505      C1510   1.413       .  A
C1506      C1507   1.397       .  A
C1506      H1515   1.084       .  S
C1507      C1508   1.413       .  A
C1507      S1511   1.803       .  S
C1508      C1509   1.402       .  A
C1509      C1510   1.400       .  A
C1509      H1516   1.083       .  S
C1510      S1512   1.808       .  S
S1511      H1514   1.406       .  S
S1512      H1513   1.407       .  S
C1517      C1518   1.406       .  A
C1517      C1522   1.419       .  A
C1518      C1519   1.401       .  A
C1518      H1527   1.083       .  S
C1519      C1520   1.411       .  A
C1519      S1523   1.802       .  S
C1520      C1521   1.397       .  A
C1521      C1522   1.394       .  A
C1521      H1528   1.083       .  S
C1522      S1524   1.804       .  S
S1523      H1526   1.405       .  S
S1524      H1525   1.406       .  S
C1529      C1530   1.409       .  A
C1529      C1534   1.416       .  A
C1530      C1531   1.399       .  A
C1530      H1539   1.084       .  S
C1531      C1532   1.410       .  A
C1531      S1535   1.801       .  S
C1532      C1533   1.408       .  A
C1533      C1534   1.407       .  A
C1533      H1540   1.084       .  S
C1534      S1536   1.802       .  S
S1535      H1538   1.406       .  S
S1536      H1537   1.407   1_554  S
C1541      C1542   1.406       .  A
C1541      C1546   1.421       .  A
C1542      C1543   1.413       .  A
C1542      H1551   1.082       .  S
C1543      C1544   1.417       .  A
C1543      S1547   1.806       .  S
C1544      C1545   1.402       .  A
C1545      C1546   1.401       .  A
C1545      H1552   1.082       .  S
C1546      S1548   1.813       .  S
S1547      H1550   1.406       .  S
S1548      H1549   1.407       .  S
C1553      C1554   1.403       .  A
C1553      C1558   1.411       .  A
C1554      C1555   1.402       .  A
C1554      H1563   1.083       .  S
C1555      C1556   1.410       .  A
C1555      S1559   1.807       .  S
C1556      C1557   1.404       .  A
C1557      C1558   1.400       .  A
C1557      H1564   1.081       .  S
C1558      S1560   1.804       .  S
S1560      H1561   1.404       .  S
C1565      C1566   1.408       .  A
C1565      C1570   1.420       .  A
C1566      C1567   1.404       .  A
C1566      H1575   1.083       .  S
C1567      C1568   1.411       .  A
C1567      S1571   1.803       .  S
C1568      C1569   1.399       .  A
C1569      C1570   1.396       .  A
C1569      H1576   1.084       .  S
C1570      S1572   1.808       .  S
S1571      H1574   1.406       .  S
S1572      H1573   1.401       .  S
C1577      C1578   1.399       .  A
C1577      C1582   1.418       .  A
C1578      C1579   1.395       .  A
C1578      H1587   1.084       .  S
C1579      C1580   1.416       .  A
C1579      S1583   1.803       .  S
C1580      C1581   1.403       .  A
C1581      C1582   1.409       .  A
C1581      H1588   1.084       .  S
C1582      S1584   1.801       .  S
S1583      H1586   1.407       .  S
S1584      H1585   1.404       .  S
C1589      C1590   1.410       .  A
C1589      C1594   1.420       .  A
C1590      C1591   1.398       .  A
C1590      H1599   1.083       .  S
C1591      C1592   1.414       .  A
C1591      S1595   1.810       .  S
C1592      C1593   1.405       .  A
C1593      C1594   1.406       .  A
C1593      H1600   1.084       .  S
C1594      S1596   1.799       .  S
S1595      H1598   1.399       .  S
S1596      H1597   1.408       .  S
C1601      C1602   1.398       .  A
C1601      C1606   1.415       .  A
C1602      C1603   1.395       .  A
C1602      H1611   1.085       .  S
C1603      C1604   1.420       .  A
C1603      S1607   1.806       .  S
C1604      C1605   1.406       .  A
C1605      C1606   1.409       .  A
C1605      H1612   1.083       .  S
C1606      S3568   1.799       .  S
S1607      H1610   1.407       .  S
S1608      C3566   1.799       .  S
S1608      H1609   1.405       .  S
C1613      C1614   1.401       .  A
C1613      C1618   1.415       .  A
C1614      C1615   1.399       .  A
C1614      H1623   1.080       .  S
C1615      C1616   1.415       .  A
C1615      S1619   1.810       .  S
C1616      C1617   1.403       .  A
C1617      C1618   1.404       .  A
C1617      H1624   1.084       .  S
S1619      H1622   1.407       .  S
S1620      H1621   1.400       .  S
C1625      C1626   1.406       .  A
C1625      C1630   1.421       .  A
C1626      C1627   1.401       .  A
C1626      H1635   1.083       .  S
C1627      C1628   1.412       .  A
C1627      S1631   1.804       .  S
C1628      C1629   1.403       .  A
C1629      C1630   1.406       .  A
C1629      H1636   1.084       .  S
C1630      S1632   1.807       .  S
S1631      H1634   1.407       .  S
S1632      H1633   1.402       .  S
C1637      C1638   1.410       .  A
C1637      C1642   1.414       .  A
C1638      C1639   1.408       .  A
C1638      H1647   1.083       .  S
C1639      C1640   1.412       .  A
C1639      S1643   1.801       .  S
C1640      C1641   1.407       .  A
C1641      C1642   1.407       .  A
C1641      H1648   1.084       .  S
C1642      S1644   1.803       .  S
S1643      H1646   1.405       .  S
S1644      H1645   1.407       .  S
C1649      C1650   1.399       .  A
C1649      C1654   1.417       .  A
C1650      C1651   1.392       .  A
C1650      H1659   1.085       .  S
C1651      C1652   1.420       .  A
C1651      S1655   1.806       .  S
C1652      C1653   1.408       .  A
C1653      C1654   1.412       .  A
C1653      H1660   1.083       .  S
C1654      S1656   1.805       .  S
S1655      H1658   1.408       .  S
S1656      H1657   1.401   1_565  S
C1661      C1662   1.403       .  A
C1661      C1666   1.422       .  A
C1662      C1663   1.407       .  A
C1662      H1671   1.082       .  S
C1663      C1664   1.420       .  A
C1663      S1667   1.809       .  S
C1664      C1665   1.401       .  A
C1665      C1666   1.402       .  A
C1665      H1672   1.084       .  S
C1666      S1668   1.808       .  S
S1667      H1670   1.407       .  S
S1668      H1669   1.403       .  S
C1673      C1674   1.406       .  A
C1673      C1678   1.417       .  A
C1674      C1675   1.400       .  A
C1674      H1683   1.084       .  S
C1675      C1676   1.421       .  A
C1675      S1679   1.803       .  S
C1676      C1677   1.410       .  A
C1677      C1678   1.405       .  A
C1677      H1684   1.083       .  S
C1678      S1680   1.803       .  S
S1679      H1682   1.404       .  S
S1680      H1681   1.406       .  S
C1685      C1686   1.408       .  A
C1685      C1690   1.424       .  A
C1686      C1687   1.400       .  A
C1686      H1695   1.084       .  S
C1687      C1688   1.413       .  A
C1687      S1691   1.803       .  S
C1688      C1689   1.401       .  A
C1689      C1690   1.399       .  A
C1690      S1692   1.804       .  S
S1691      H1694   1.407       .  S
S1692      H1693   1.405       .  S
C1697      C1698   1.412       .  A
C1697      C1702   1.415       .  A
C1698      C1699   1.402       .  A
C1698      H1707   1.084       .  S
C1699      C1700   1.412       .  A
C1699      S1703   1.806       .  S
C1700      C1701   1.407       .  A
C1701      C1702   1.397       .  A
C1701      H1708   1.085       .  S
C1702      S1704   1.798       .  S
S1703      H1706   1.404       .  S
S1704      H1705   1.405       .  S
C1709      C1710   1.406       .  A
C1709      C1714   1.409       .  A
C1710      C1711   1.398       .  A
C1710      H1719   1.084       .  S
C1711      C1712   1.413       .  A
C1711      S1715   1.804       .  S
C1712      C1713   1.409       .  A
C1713      C1714   1.396       .  A
C1713      H1720   1.084       .  S
C1714      S1716   1.805       .  S
S1715      H1718   1.405       .  S
S1716      H1717   1.405       .  S
C1721      C1722   1.405       .  A
C1721      C1726   1.391       .  A
C1722      C1723   1.479   1_455  A
C1722      H1731   1.062   1_455  S
C1723      C1724   1.521   1_655  A
C1723      S3687   3.415       .  S
C1724      C1725   1.409       .  A
C1725      C1726   1.378       .  A
C1725      H1732   1.081       .  S
C1726      S1728   1.808       .  S
S1727      C3683   3.414       .  S
S1727      H1730   1.422       .  S
S1728      H1729   1.405       .  S
C1733      C1734   1.399       .  A
C1733      C1738   1.409       .  A
C1734      C1735   1.395       .  A
C1734      H1743   1.084       .  S
C1735      C1736   1.415       .  A
C1735      S1739   1.802       .  S
C1736      C1737   1.409       .  A
C1737      C1738   1.407       .  A
C1737      H1744   1.083       .  S
C1738      S1740   1.805       .  S
S1739      H1742   1.406       .  S
S1740      H1741   1.406       .  S
C1745      C1746   1.401       .  A
C1745      C1750   1.409       .  A
C1746      C1747   1.406       .  A
C1746      H1755   1.084       .  S
C1747      C1748   1.424       .  A
C1747      S1751   1.803       .  S
C1748      C1749   1.411       .  A
C1749      C1750   1.401       .  A
C1749      H1756   1.081       .  S
S1751      H1754   1.406       .  S
S1752      H1753   1.407       .  S
C1757      C1758   1.410       .  A
C1757      C1762   1.421       .  A
C1758      C1759   1.398       .  A
C1758      H1767   1.082       .  S
C1759      C1760   1.415       .  A
C1759      S1763   1.811       .  S
C1760      C1761   1.402       .  A
C1761      C1762   1.403       .  A
C1761      H1768   1.084       .  S
C1762      S1764   1.805       .  S
S1763      H1766   1.401       .  S
S1764      H1765   1.407       .  S
C1769      C1770   1.701       .  A
C1769      C1774   1.728       .  A
C1770      C1771   1.665       .  A
C1770      H1779   1.077       .  S
C1771      C1772   1.691       .  A
C1771      S1775   1.791       .  S
C1772      C1773   1.709       .  A
C1773      C1774   1.699       .  A
C1773      H1780   1.082       .  S
C1774      S1776   1.804       .  S
S1775      H1778   1.403       .  S
S1776      H1777   1.391       .  S
C1781      C1782   1.407       .  A
C1781      C1786   1.416       .  A
C1782      C1783   1.399       .  A
C1782      H1791   1.083       .  S
C1783      C1784   1.414       .  A
C1783      S1787   1.805       .  S
C1784      C1785   1.403       .  A
C1785      C1786   1.397       .  A
C1785      H1792   1.083       .  S
C1786      S1788   1.802       .  S
S1787      H1790   1.406       .  S
S1788      H1789   1.406       .  S
C1793      C1794   1.411       .  A
C1793      C1798   1.412       .  A
C1794      C1795   1.404       .  A
C1794      H1803   1.083       .  S
C1795      C1796   1.414       .  A
C1795      S1799   1.804       .  S
C1796      C1797   1.404       .  A
C1797      C1798   1.392       .  A
C1797      H1804   1.084       .  S
C1798      S1800   1.797       .  S
S1799      H1802   1.406       .  S
S1800      H1801   1.406       .  S
C1805      C1806   1.410       .  A
C1805      C1810   1.418       .  A
C1806      C1807   1.404       .  A
C1806      H1815   1.083       .  S
C1807      C1808   1.419       .  A
C1807      S1811   1.804       .  S
C1808      C1809   1.409       .  A
C1809      C1810   1.402       .  A
C1809      H1816   1.082       .  S
C1810      S1812   1.804       .  S
S1811      H1814   1.406       .  S
S1812      H1813   1.407       .  S
C1817      C1818   1.407       .  A
C1817      C1822   1.413       .  A
C1818      C1819   1.402       .  A
C1818      H1827   1.083       .  S
C1819      C1820   1.409       .  A
C1819      S1823   1.805       .  S
C1820      C1821   1.410       .  A
C1821      C1822   1.409       .  A
C1821      H1828   1.084       .  S
C1822      S1824   1.802       .  S
S1823      H1826   1.406       .  S
S1824      H1825   1.406       .  S
C1829      C1830   1.404       .  A
C1829      C1834   1.427       .  A
C1830      C1831   1.404       .  A
C1830      H1839   1.084       .  S
C1831      C1832   1.415       .  A
C1831      S1835   1.798       .  S
C1832      C1833   1.396       .  A
C1833      C1834   1.396       .  A
C1833      H1840   1.085       .  S
C1834      S1836   1.806       .  S
S1836      H1837   1.408       .  S
C1841      C1842   1.400       .  A
C1841      C1846   1.416       .  A
C1842      C1843   1.398       .  A
C1842      H1851   1.085       .  S
C1843      C1844   1.422       .  A
C1843      S1847   1.805       .  S
C1844      C1845   1.408       .  A
C1845      C1846   1.409       .  A
C1845      H1852   1.083       .  S
C1846      S1848   1.802       .  S
S1847      H1850   1.407       .  S
S1848      H1849   1.405       .  S
C1853      C1854   1.402       .  A
C1853      C1858   1.413       .  A
C1854      C1855   1.405       .  A
C1854      H1863   1.084       .  S
C1855      C1856   1.421       .  A
C1855      S1859   1.806       .  S
C1856      C1857   1.405       .  A
C1857      C1858   1.405       .  A
C1857      H1864   1.079       .  S
C1858      S1860   1.803       .  S
S1859      H1862   1.405       .  S
S1860      H1861   1.407       .  S
C1865      C1866   1.403       .  A
C1865      C1870   1.412       .  A
C1866      C1867   1.401       .  A
C1866      H1875   1.084       .  S
C1867      C1868   1.416       .  A
C1867      S1871   1.800       .  S
C1868      C1869   1.406       .  A
C1869      C1870   1.396       .  A
C1869      H1876   1.084       .  S
C1870      S1872   1.801       .  S
S1871      H1874   1.407       .  S
S1872      H1873   1.404       .  S
C1877      C1878   1.403       .  A
C1877      C1882   1.407       .  A
C1878      C1879   1.400       .  A
C1878      H1887   1.084       .  S
C1879      C1880   1.414       .  A
C1879      S1883   1.799       .  S
C1880      C1881   1.409       .  A
C1881      C1882   1.397       .  A
C1881      H1888   1.084       .  S
C1882      S1884   1.803       .  S
S1883      H1886   1.406       .  S
S1884      H1885   1.407       .  S
C1889      C1890   1.402       .  A
C1889      C1894   1.410       .  A
C1890      C1891   1.399       .  A
C1890      H1899   1.084       .  S
C1891      C1892   1.417       .  A
C1891      S1895   1.809       .  S
C1892      C1893   1.404       .  A
C1893      C1894   1.400       .  A
C1893      H1900   1.081       .  S
C1894      S1896   1.799       .  S
S1895      H1898   1.398       .  S
S1896      H1897   1.405   1_556  S
C1901      C1902   1.399       .  A
C1901      C1906   1.417       .  A
C1902      C1903   1.404       .  A
C1902      H1911   1.084       .  S
C1903      C1904   1.424       .  A
C1903      S1907   1.803   1_554  S
C1904      C1905   1.404       .  A
C1905      C1906   1.405       .  A
C1905      H1912   1.082       .  S
C1906      S1908   1.809       .  S
S1907      H1910   1.403       .  S
S1908      H1909   1.406       .  S
C1913      C1914   1.403       .  A
C1913      C1918   1.418       .  A
C1914      C1915   1.395       .  A
C1914      H1923   1.084       .  S
C1915      C1916   1.414       .  A
C1915      S1919   1.801       .  S
C1916      C1917   1.407       .  A
C1917      C1918   1.412       .  A
C1917      H1924   1.083       .  S
C1918      S1920   1.801       .  S
S1919      H1922   1.401       .  S
S1920      H1921   1.407       .  S
C1925      C1926   1.404       .  A
C1925      C1930   1.414       .  A
C1926      C1927   1.403       .  A
C1926      H1935   1.084       .  S
C1927      C1928   1.414       .  A
C1928      C1929   1.399       .  A
C1929      C1930   1.397       .  A
C1929      H1936   1.081       .  S
C1930      S1932   1.809       .  S
S1931      H1934   1.403       .  S
S1932      H1933   1.407       .  S
C1937      C1938   1.412       .  A
C1937      C1942   1.418       .  A
C1938      C1939   1.394       .  A
C1938      H1947   1.083       .  S
C1939      C1940   1.408       .  A
C1939      S1943   1.805       .  S
C1940      C1941   1.406       .  A
C1941      C1942   1.406       .  A
C1941      H1948   1.084       .  S
C1942      S1944   1.801       .  S
S1943      H3906   1.405       .  S
S1944      H1945   1.408       .  S
H1946      S3903   1.404       .  S
C1949      C1950   1.404       .  A
C1949      C1954   1.429       .  A
C1950      C1951   1.404       .  A
C1950      H1959   1.084       .  S
C1951      C1952   1.418       .  A
C1951      S1955   1.805       .  S
C1952      C1953   1.396       .  A
C1953      C1954   1.406       .  A
C1953      H1960   1.082       .  S
C1954      S1956   1.813       .  S
S1955      H1958   1.403       .  S
S1956      H1957   1.406       .  S
O1961     Ni1967   1.929       .  S
O1961      C1982   1.272       .  A
O1962     Ni1985   1.947   1_556  S
O1962      C1971   1.280       .  A
O1963     Ni1967   1.897       .  S
O1963     Ni1985   1.919       .  S
O1963     Ni1979   1.914       .  S
O1963      H1986   0.966       .  S
C1964      O1981   1.280       .  A
C1964      O1973   1.279       .  A
C1964      C2869   1.475       .  S
O1965     Ni1984   1.912       .  S
O1965      C1971   1.264       .  A
O1966     Ni1984   1.903       .  S
O1966      C1968   1.265   1_556  A
Ni1967     O1970   1.921       .  S
Ni1967     O1972   1.898       .  S
C1968      O1978   1.278       .  A
C1968      C2884   1.494       .  S
O1969     Ni1985   1.926       .  S
O1969      C1975   1.280       .  A
O1970      C1975   1.277       .  A
C1971      C2929   1.501       .  S
O1972      C1974   1.268   1_554  A
O1973     Ni1984   1.917       .  S
C1974      O1980   1.278       .  A
C1974      C2893   1.493       .  S
C1975      C2917   1.497       .  S
H1976      O1977   0.965       .  S
O1977     Ni1985   1.916   1_556  S
O1977     Ni1979   1.890   1_556  S
O1977     Ni1984   1.879       .  S
O1978     Ni1979   1.947       .  S
Ni1979     O1983   1.915       .  S
Ni1979     O1981   1.935   1_554  S
O1980     Ni1985   1.957   1_556  S
C1982      O1983   1.270       .  A
C1982      C2905   1.480       .  S
O1987     Ni1993   1.911       .  S
O1987      C2008   1.267       .  A
O1988     Ni2011   1.913       .  S
O1988      C1997   1.265       .  A
O1989     Ni1993   1.895       .  S
O1989     Ni2011   1.898       .  S
O1989     Ni2005   1.930       .  S
O1989      H2012   0.966       .  S
C1990      O2007   1.288       .  A
C1990      O1999   1.273       .  A
C1990      C2809   1.491       .  S
O1991     Ni2010   1.921       .  S
O1991      C1997   1.268       .  A
O1992     Ni2010   1.892       .  S
O1992      C1994   1.264       .  A
Ni1993     O1996   1.926       .  S
Ni1993     O1998   1.904       .  S
C1994      O2004   1.279       .  A
C1994      C2824   1.496       .  S
O1995     Ni2011   1.919       .  S
O1995      C2001   1.276       .  A
O1996      C2001   1.280       .  A
C1997      C2848   1.486       .  S
O1998      C2000   1.265       .  A
O1999     Ni2010   1.907       .  S
C2000      O2006   1.275       .  A
C2000      C2833   1.482       .  S
C2001      C2857   1.471       .  S
H2002      O2003   0.967       .  S
O2003     Ni2011   1.911       .  S
O2003     Ni2005   1.914       .  S
O2003     Ni2010   1.902       .  S
O2004     Ni2005   1.956       .  S
Ni2005     O2009   1.946       .  S
Ni2005     O2007   1.944       .  S
O2006     Ni2011   1.944       .  S
C2008      O2009   1.280       .  A
C2008      C2797   1.488       .  S
N2013      H2045   1.043       .  S
N2013      C2998   1.357       .  A
N2013      C2017   1.352   1_565  A
N2014      C2021   1.346       .  A
N2014      C2022   1.354       .  A
N2015      H2046   1.044       .  S
N2015      C3000   1.351   1_545  A
N2015      C2019   1.358       .  A
N2016      C2023   1.353       .  A
N2016      C2024   1.349       .  A
C2017      C2025   1.391   1_545  A
C2017      C2033   1.422       .  A
C2018      N2993   1.357       .  A
C2018      C2034   1.420       .  A
C2018      C2026   1.385       .  A
C2019      C2027   1.390       .  A
C2019      C2036   1.428       .  A
C2020      N2995   1.351       .  A
C2020      C2035   1.415       .  A
C2020      C2028   1.384       .  A
C2021      C2033   1.411       .  A
C2021      C2029   1.386       .  A
C2022      C2036   1.415       .  A
C2022      C2030   1.382       .  A
C2023      C2031   1.385       .  A
C2023      C2034   1.415       .  A
C2024      C2032   1.387       .  A
C2024      C2035   1.415       .  A
C2025      C3006   1.377       .  A
C2025      H2037   1.081   1_565  S
C2026      C3005   1.377       .  A
C2026      H2038   1.082       .  S
C2027      C3008   1.369       .  A
C2027      H2039   1.075       .  S
C2028      C3007   1.369       .  A
C2028      H2040   1.077       .  S
C2029      C2030   1.379       .  A
C2029      H2041   1.076       .  S
C2030      H2042   1.080       .  S
C2031      C2032   1.375       .  A
C2031      H2043   1.082       .  S
C2032      H2044   1.081       .  S
C2033      C2776   1.491       .  S
C2034      C2785   1.513       .  S
C2035      C2764   1.491       .  S
C2036      C2749   1.528       .  S
N2047      H2079   1.044       .  S
N2047      C2052   1.349       .  A
N2047      C2051   1.351       .  A
N2048      C2055   1.354       .  A
N2048      C2056   1.347       .  A
N2049      H2080   1.041       .  S
N2049      C2054   1.350       .  A
N2049      C2053   1.347       .  A
N2050      C2057   1.352       .  A
N2050      C2058   1.351       .  A
C2051      C2059   1.387       .  A
C2051      C2067   1.418       .  A
C2052      C2068   1.417       .  A
C2052      C2060   1.388       .  A
C2053      C2061   1.386       .  A
C2053      C2070   1.407       .  A
C2054      C2069   1.412       .  A
C2054      C2062   1.388       .  A
C2055      C2067   1.417       .  A
C2055      C2063   1.387       .  A
C2056      C2070   1.407       .  A
C2056      C2064   1.376       .  A
C2057      C2065   1.386       .  A
C2057      C2068   1.416       .  A
C2058      C2066   1.378       .  A
C2058      C2069   1.410       .  A
C2059      C2060   1.385       .  A
C2059      H2071   1.082       .  S
C2060      H2072   1.082       .  S
C2061      C2062   1.382       .  A
C2061      H2073   1.082       .  S
C2062      H2074   1.082       .  S
C2063      C2064   1.379       .  A
C2063      H2075   1.082       .  S
C2064      H2076   1.075       .  S
C2065      C2066   1.376       .  A
C2065      H2077   1.082       .  S
C2066      H2078   1.072       .  S
C2067      C2728   1.513       .  S
C2068      C2737   1.509       .  S
C2069      C2701   1.500       .  S
C2070      C2713   1.482       .  S
N2081      H2113   1.043       .  S
N2081      C2085   1.356       .  A
N2082      C2089   1.349       .  A
N2082      C2090   1.347       .  A
N2083      H2114   1.038       .  S
N2083      C2087   1.357       .  A
N2084      C2091   1.353       .  A
N2084      C2092   1.350       .  A
C2085      C2093   1.387       .  A
C2085      C2101   1.421       .  A
C2086      C2102   1.419       .  A
C2086      C2094   1.386       .  A
C2087      C2095   1.388       .  A
C2087      C2104   1.423       .  A
C2088      C2103   1.419       .  A
C2088      C2096   1.388       .  A
C2089      C2101   1.412       .  A
C2089      C2097   1.384       .  A
C2090      C2104   1.411       .  A
C2090      C2098   1.386       .  A
C2091      C2099   1.385       .  A
C2091      C2102   1.415       .  A
C2092      C2100   1.388       .  A
C2092      C2103   1.415       .  A
C2093      H2105   1.081       .  S
C2094      H2106   1.082       .  S
C2095      H2107   1.082       .  S
C2096      H2108   1.082       .  S
C2097      C2098   1.376       .  A
C2097      H2109   1.082       .  S
C2098      H2110   1.078       .  S
C2099      C2100   1.376       .  A
C2099      H2111   1.082       .  S
C2100      H2112   1.081       .  S
C2101      C2665   1.507       .  S
C2102      C2653   1.507       .  S
C2103      C2689   1.487       .  S
C2104      C2680   1.497       .  S
C2115      C2800   1.492       .  S
C2115      C2120   1.404       .  A
C2116      C2641   1.494       .  S
C2116      C2117   1.407       .  A
C2117      C2118   1.400       .  A
C2117      H2122   1.084       .  S
C2118      C2740   1.487       .  S
C2119      C2773   1.496       .  S
C2119      C2120   1.405       .  A
C2120      H2121   1.085       .  S
C2123      C2629   1.482       .  S
C2123      C3104   1.416       .  A
C2123      C2128   1.402       .  A
C2124      C2821   1.492       .  S
C2124      C3103   1.417   1_545  A
C2124      C2125   1.409       .  A
C2125      C2126   1.409       .  A
C2125      H2130   1.085       .  S
C2126      C2725   1.485       .  S
C2126      C3107   1.420   1_545  A
C2127      C2677   1.501       .  S
C2127      C3106   1.420       .  A
C2127      C2128   1.402       .  A
C2128      H2129   1.086       .  S
C2131      C2620   1.496       .  S
C2131      C2132   1.417       .  A
C2131      C2136   1.404       .  A
C2132      C2932   1.488       .  S
C2132      C2133   1.408       .  A
C2133      C2134   1.408       .  A
C2133      H2138   1.083       .  S
C2134      C2656   1.510       .  S
C2134      C2135   1.429       .  A
C2135      C2761   1.498       .  S
C2135      C2136   1.411       .  A
C2136      H2137   1.084       .  S
C2139      C2605   1.497       .  S
C2139      C2140   1.417       .  A
C2139      C2144   1.415       .  A
C2140      C2860   1.491       .  S
C2140      C2141   1.398       .  A
C2141      C2142   1.398       .  A
C2141      H2146   1.086       .  S
C2142      C2692   1.488       .  S
C2142      C2143   1.425       .  A
C2143      C2788   1.511       .  S
C2143      C2144   1.417       .  A
C2144      H2145   1.083       .  S
C2147      C2872   1.482       .  S
C2147      C3128   1.415   1_545  A
C2147      C2152   1.403       .  A
C2148      C2593   1.486       .  S
C2148      C3127   1.414       .  A
C2148      C2149   1.406       .  A
C2149      C2150   1.405       .  A
C2149      H2154   1.084       .  S
C2150      C2668   1.491       .  S
C2150      C3131   1.418       .  A
C2151      C2716   1.490       .  S
C2151      C3130   1.419   1_545  A
C2151      C2152   1.403       .  A
C2152      H2153   1.085       .  S
C2155      C2896   1.494       .  S
C2155      C2160   1.405       .  A
C2156      C2581   1.484       .  S
C2156      C2157   1.416       .  A
C2157      C2158   1.417       .  A
C2157      H2162   1.081       .  S
C2158      C2704   1.531       .  S
C2159      C2752   1.411       .  S
C2159      C2160   1.395       .  A
C2160      H2161   1.084       .  S
O2163     Ni2169   1.926       .  S
O2163      C2184   1.269       .  A
O2164     Ni2187   1.943       .  S
O2164      C2173   1.276       .  A
O2165     Ni2169   1.904       .  S
O2165     Ni2187   1.922       .  S
O2165     Ni2181   1.920       .  S
O2165      H2188   0.967       .  S
C2166      O2183   1.284       .  A
C2166      O2175   1.278       .  A
C2166      C2548   1.474       .  S
O2167     Ni2186   1.903       .  S
O2167      C2173   1.263       .  A
O2168     Ni2186   1.900       .  S
O2168      C2170   1.264       .  A
Ni2169     O2172   1.918       .  S
Ni2169     O2174   1.893       .  S
C2170      O2180   1.277       .  A
C2170      C2644   1.490       .  S
O2171     Ni2187   1.936       .  S
O2171      C2177   1.282       .  A
O2172      C2177   1.274       .  A
C2173      C2560   1.481       .  S
O2174      C2176   1.267       .  A
O2175     Ni2186   1.909       .  S
C2176      O2182   1.276       .  A
C2176      C2569   1.499       .  S
C2177      C2632   1.490       .  S
H2178      O2179   0.966       .  S
O2179     Ni2187   1.927       .  S
O2179     Ni2181   1.896       .  S
O2179     Ni2186   1.892       .  S
O2180     Ni2181   1.946       .  S
Ni2181     O2185   1.924       .  S
Ni2181     O2183   1.942       .  S
O2182     Ni2187   1.952       .  S
C2184      O2185   1.271       .  A
C2184      C2608   1.481       .  S
O2189     Ni2195   1.921       .  S
O2189      C2210   1.271       .  A
O2190     Ni2213   1.922       .  S
O2190      C2199   1.273       .  A
O2191     Ni2195   1.892       .  S
O2191     Ni2213   1.899   1_554  S
O2191     Ni2207   1.914   1_554  S
O2191      H2214   0.965       .  S
C2192      O2209   1.278       .  A
C2192      O2201   1.274       .  A
C2192      C2584   1.485       .  S
O2193     Ni2212   1.921       .  S
O2193      C2199   1.271       .  A
O2194     Ni2212   1.895   1_554  S
O2194      C2196   1.265       .  A
Ni2195     O2198   1.917       .  S
Ni2195     O2200   1.919       .  S
C2196      O2206   1.282       .  A
C2196      C2521   1.497       .  S
O2197     Ni2213   1.936   1_554  S
O2197      C2203   1.280       .  A
O2198      C2203   1.277       .  A
C2199      C2596   1.482       .  S
O2200      C2202   1.269   1_554  A
O2201     Ni2212   1.926       .  S
C2202      O2208   1.279       .  A
C2202      C2617   1.496       .  S
C2203      C2533   1.473       .  S
H2204      O2205   0.960       .  S
O2205     Ni2213   1.918       .  S
O2205     Ni2207   1.917       .  S
O2205     Ni2212   1.901       .  S
O2206     Ni2207   1.971   1_554  S
Ni2207     O2211   1.934   1_556  S
Ni2207     O2209   1.925       .  S
O2208     Ni2213   1.950       .  S
C2210      O2211   1.277       .  A
C2210      C2509   1.493       .  S
N2215      H2247   1.040       .  S
N2215      C2220   1.348       .  A
N2216      C2223   1.353       .  A
N2216      C2224   1.348       .  A
N2217      H2248   1.037       .  S
N2217      C2222   1.356       .  A
N2218      C2225   1.356       .  A
N2218      C2226   1.353       .  A
C2219      C2227   1.385       .  A
C2219      C2235   1.409       .  A
C2220      C2236   1.411       .  A
C2220      C2228   1.388       .  A
C2221      C2229   1.383       .  A
C2221      C2238   1.415       .  A
C2222      C2237   1.425       .  A
C2222      C2230   1.391       .  A
C2223      C2235   1.415       .  A
C2223      C2231   1.387       .  A
C2224      C2238   1.410       .  A
C2224      C2232   1.380       .  A
C2225      C2233   1.383       .  A
C2225      C2236   1.418       .  A
C2226      C2234   1.389       .  A
C2226      C2237   1.425       .  A
C2227      H2239   1.082       .  S
C2228      H2240   1.082       .  S
C2229      H2241   1.082       .  S
C2230      H2242   1.078       .  S
C2231      C2232   1.368       .  A
C2231      H2243   1.079       .  S
C2232      H2244   1.076       .  S
C2233      C2234   1.366       .  A
C2233      H2245   1.080       .  S
C2234      H2246   1.079       .  S
C2235      C2497   1.497       .  S
C2236      C2476   1.499       .  S
C2237      C2461   1.500       .  S
C2238      C2488   1.488       .  S
N2249      H2281   1.042       .  S
N2249      C2254   1.350       .  A
N2249      C2253   1.349       .  A
N2250      C2257   1.350       .  A
N2250      C2258   1.347       .  A
N2251      H2282   1.041       .  S
N2251      C2256   1.351       .  A
N2251      C2255   1.353       .  A
N2252      C2259   1.352       .  A
N2252      C2260   1.350       .  A
C2253      C2261   1.388       .  A
C2253      C2269   1.412       .  A
C2254      C2270   1.407       .  A
C2254      C2262   1.385       .  A
C2255      C2263   1.386       .  A
C2255      C2272   1.413       .  A
C2256      C2271   1.416       .  A
C2256      C2264   1.387       .  A
C2257      C2269   1.412       .  A
C2257      C2265   1.387       .  A
C2258      C2272   1.409       .  A
C2258      C2266   1.384       .  A
C2259      C2267   1.385       .  A
C2259      C2270   1.414       .  A
C2260      C2268   1.387       .  A
C2260      C2271   1.414       .  A
C2261      C2262   1.377       .  A
C2261      H2273   1.082       .  S
C2262      H2274   1.082       .  S
C2263      C2264   1.378       .  A
C2263      H2275   1.082       .  S
C2264      H2276   1.082       .  S
C2265      C2266   1.379       .  A
C2265      H2277   1.082       .  S
C2266      H2278   1.079       .  S
C2267      C2268   1.375       .  A
C2267      H2279   1.082       .  S
C2268      H2280   1.082       .  S
C2269      C2416   1.493       .  S
C2270      C2440   1.491       .  S
C2271      C2449   1.493       .  S
C2272      C2428   1.483       .  S
C2283      C2812   1.483   1_565  S
C2283      C3264   1.410       .  A
C2283      C2288   1.402   1_565  A
C2284      C2572   1.487       .  S
C2284      C3263   1.409       .  A
C2284      C2285   1.402       .  A
C2285      C2286   1.406       .  A
C2285      H2290   1.085       .  S
C2286      C2437   1.479       .  S
C2286      C3267   1.434       .  A
C2287      C2464   1.524   1_565  S
C2287      C3266   1.433       .  A
C2287      C2288   1.406   1_565  A
C2288      H2289   1.082       .  S
N2291      H2323   1.040       .  S
N2291      C2296   1.359       .  A
N2291      C3275   1.358       .  A
N2292      C2299   1.352       .  A
N2292      C2300   1.353       .  A
N2293      H2324   1.040       .  S
N2293      C2298   1.353       .  A
N2293      C3277   1.358       .  A
N2294      C2301   1.356       .  A
N2294      C2302   1.357       .  A
C2295      N3271   1.358       .  A
C2295      C2303   1.385       .  A
C2295      C2311   1.424       .  A
C2296      C2312   1.430       .  A
C2296      C2304   1.391       .  A
C2297      N3273   1.358   1_545  A
C2297      C2305   1.391       .  A
C2297      C2314   1.426       .  A
C2298      C2313   1.417       .  A
C2298      C2306   1.385       .  A
C2299      C2311   1.418       .  A
C2299      C2307   1.386       .  A
C2300      C2314   1.419       .  A
C2300      C2308   1.386       .  A
C2301      C2309   1.387       .  A
C2301      C2312   1.424       .  A
C2302      C2310   1.384       .  A
C2302      C2313   1.422       .  A
C2303      C3284   1.369   1_545  A
C2303      H2315   1.082       .  S
C2304      C3283   1.369       .  A
C2304      H2316   1.079       .  S
C2305      C3286   1.369   1_545  A
C2305      H2317   1.080       .  S
C2306      C3285   1.369       .  A
C2306      H2318   1.082       .  S
C2307      C2308   1.375       .  A
C2307      H2319   1.082       .  S
C2308      H2320   1.079       .  S
C2309      C2310   1.371       .  A
C2309      H2321   1.079       .  S
C2310      H2322   1.081       .  S
C2311      C2389   1.511       .  S
C2312      C2365   1.509       .  S
C2313      C2377   1.508       .  S
C2314      C2404   1.506       .  S
C2325      C2908   1.479       .  S
C2325      C3306   1.413   1_545  A
C2325      C2330   1.402       .  A
C2326      C2536   1.482       .  S
C2326      C3305   1.414       .  A
C2326      C2327   1.406       .  A
C2327      C2328   1.403       .  A
C2327      H2332   1.085       .  S
C2328      C2452   1.486       .  S
C2328      C3309   1.414       .  A
C2329      C2473   1.478       .  S
C2329      C3308   1.414   1_545  A
C2329      C2330   1.398       .  A
C2330      H2331   1.085       .  S
C2333      C2845   1.484       .  S
C2333      C2334   1.414       .  A
C2333      C2338   1.408       .  A
C2334      C2545   1.493       .  S
C2334      C2335   1.401       .  A
C2335      C2336   1.403       .  A
C2335      H2340   1.084       .  S
C2336      C2485   1.484       .  S
C2336      C2337   1.424       .  A
C2337      C2392   1.510       .  S
C2337      C2338   1.408       .  A
C2338      H2339   1.083       .  S
C2341      C2512   1.488       .  S
C2341      C2342   1.417       .  A
C2341      C2346   1.403       .  A
C2342      C2881   1.490       .  S
C2342      C2343   1.406       .  A
C2343      C2344   1.406       .  A
C2343      H2348   1.085       .  S
C2344      C2401   1.507       .  S
C2344      C2345   1.424       .  A
C2345      C2500   1.479       .  S
C2345      C2346   1.403       .  A
C2346      H2347   1.085       .  S
C2349      C2557   1.485       .  S
C2349      C2354   1.406       .  A
C2350      C2836   1.498       .  S
C2350      C2351   1.407       .  A
C2351      C2352   1.401       .  A
C2351      H2356   1.085       .  S
C2352      C2413   1.479       .  S
C2353      C2368   1.491       .  S
C2353      C2354   1.400       .  A
C2354      H2355   1.085       .  S
C2357      C2524   1.502       .  S
C2357      C2362   1.413       .  A
C2358      C2920   1.485       .  S
C2358      C2359   1.396       .  A
C2359      C2360   1.399   1_655  A
C2359      H2364   1.085       .  S
C2360      C2425   1.491   1_455  S
C2361      C2380   1.504       .  S
C2361      C2362   1.416       .  A
C2362      H2363   1.083       .  S
C2365      C2366   1.408       .  A
C2365      C2370   1.421       .  A
C2366      C2367   1.397       .  A
C2366      H2375   1.083       .  S
C2367      C2368   1.409       .  A
C2367      S2371   1.805       .  S
C2368      C2369   1.405       .  A
C2369      C2370   1.406       .  A
C2369      H2376   1.084       .  S
C2370      S2372   1.806       .  S
S2371      H2374   1.406       .  S
S2372      H2373   1.405       .  S
C2377      C2378   1.404       .  A
C2377      C2382   1.420       .  A
C2378      C2379   1.398       .  A
C2378      H2387   1.080       .  S
C2379      C2380   1.416       .  A
C2380      C2381   1.407       .  A
C2381      C2382   1.404       .  A
C2381      H2388   1.083       .  S
C2382      S2384   1.805       .  S
S2383      H2386   1.406       .  S
S2384      H2385   1.407       .  S
C2389      C2390   1.406       .  A
C2389      C2394   1.415       .  A
C2390      C2391   1.403       .  A
C2390      H2399   1.084       .  S
C2391      C2392   1.423       .  A
C2391      S2395   1.803       .  S
C2392      C2393   1.408       .  A
C2393      C2394   1.401       .  A
C2393      H2400   1.082       .  S
C2394      S2396   1.798       .  S
S2395      H2398   1.407       .  S
S2396      H2397   1.407       .  S
C2401      C2402   1.413       .  A
C2401      C2406   1.414       .  A
C2402      C2403   1.405       .  A
C2402      H2411   1.082       .  S
C2403      C2404   1.417       .  A
C2403      S2407   1.807       .  S
C2404      C2405   1.408       .  A
C2405      C2406   1.400       .  A
C2405      H2412   1.084       .  S
C2406      S2408   1.800       .  S
S2407      H2410   1.405       .  S
S2408      H2409   1.406       .  S
C2413      C2414   1.393       .  A
C2413      C2418   1.409       .  A
C2414      C2415   1.390       .  A
C2415      C2416   1.416       .  A
C2416      C2417   1.408       .  A
C2417      C2418   1.408       .  A
C2417      H2424   1.082       .  S
C2418      S2420   1.803       .  S
S2420      H2421   1.407       .  S
C2425      C2426   1.406       .  A
C2425      C2430   1.420       .  A
C2426      C2427   1.402       .  A
C2427      C2428   1.413       .  A
C2427      S2431   1.806       .  S
C2428      C2429   1.399       .  A
C2429      C2430   1.396       .  A
C2429      H2436   1.084       .  S
C2430      S2432   1.808       .  S
S2431      H2434   1.402       .  S
S2432      H2433   1.403       .  S
C2437      C2438   1.406       .  A
C2437      C2442   1.410       .  A
C2438      C2439   1.400       .  A
C2438      H2447   1.084       .  S
C2439      C2440   1.413       .  A
C2439      S2443   1.805       .  S
C2440      C2441   1.408       .  A
C2441      C2442   1.401       .  A
C2441      H2448   1.084       .  S
C2442      S3424   1.803       .  S
S2443      H2446   1.405       .  S
S2444      C3422   1.803       .  S
S2444      H2445   1.405       .  S
C2449      C2450   1.406       .  A
C2449      C2454   1.415       .  A
C2450      C2451   1.400       .  A
C2450      H2459   1.084       .  S
C2451      C2452   1.412       .  A
C2451      S2455   1.803       .  S
C2452      C2453   1.401       .  A
C2453      C2454   1.397       .  A
C2453      H3440   1.076       .  S
C2454      S2456   1.806       .  S
S2455      H2458   1.406       .  S
S2456      H2457   1.406       .  S
H2460      C3433   1.076       .  S
C2461      C2462   1.400       .  A
C2461      C2466   1.407       .  A
C2462      C2463   1.404       .  A
C2462      H2471   1.082       .  S
C2463      C2464   1.432       .  A
C2463      S2467   1.814       .  S
C2464      C3445   1.411       .  A
C2465      C3444   1.412       .  A
C2465      C3446   1.396       .  A
C2465      H2472   1.069       .  S
C2466      C3445   1.397       .  A
C2466      S3448   1.805       .  S
S2467      H2470   1.407       .  S
S2468      C3446   1.805       .  S
S2468      H2469   1.405       .  S
C2473      C2474   1.403       .  A
C2473      C2478   1.411       .  A
C2474      C2475   1.402       .  A
C2474      H2483   1.084       .  S
C2475      C2476   1.416       .  A
C2475      S2479   1.805       .  S
C2476      C2477   1.407       .  A
C2477      C2478   1.394       .  A
C2477      H2484   1.081       .  S
C2478      S2480   1.809       .  S
S2479      H2482   1.406       .  S
S2480      H2481   1.403       .  S
C2485      C2486   1.403       .  A
C2485      C2490   1.413       .  A
C2486      C2487   1.398       .  A
C2486      H2495   1.084       .  S
C2487      C2488   1.414       .  A
C2487      S2491   1.803       .  S
C2488      C2489   1.402       .  A
C2489      C2490   1.400       .  A
C2489      H2496   1.083       .  S
C2490      S2492   1.808       .  S
S2491      H2494   1.406       .  S
S2492      H2493   1.407       .  S
C2497      C2498   1.407       .  A
C2497      C2502   1.419       .  A
C2498      C2499   1.401       .  A
C2498      H2507   1.083       .  S
C2499      C2500   1.411       .  A
C2499      S2503   1.803       .  S
C2500      C2501   1.397       .  A
C2501      C2502   1.395       .  A
C2501      H2508   1.082       .  S
C2502      S2504   1.804       .  S
S2503      H2506   1.405       .  S
S2504      H2505   1.406       .  S
C2509      C2510   1.408       .  A
C2509      C2514   1.415       .  A
C2510      C2511   1.399       .  A
C2510      H2519   1.084       .  S
C2511      C2512   1.411       .  A
C2511      S2515   1.802       .  S
C2512      C2513   1.407       .  A
C2513      C2514   1.407       .  A
C2513      H2520   1.084       .  S
C2514      S2516   1.801       .  S
S2515      H2518   1.405       .  S
S2516      H2517   1.407   1_554  S
C2521      C2522   1.407       .  A
C2521      C2526   1.421       .  A
C2522      C2523   1.414       .  A
C2522      H2531   1.082       .  S
C2523      C2524   1.417       .  A
C2523      S2527   1.806       .  S
C2524      C2525   1.402       .  A
C2525      C2526   1.401       .  A
C2525      H2532   1.082       .  S
C2526      S2528   1.811       .  S
S2527      H2530   1.406       .  S
S2528      H2529   1.407       .  S
C2533      C2534   1.403       .  A
C2533      C2538   1.411       .  A
C2534      C2535   1.402       .  A
C2534      H2543   1.083       .  S
C2535      C2536   1.410       .  A
C2535      S2539   1.807       .  S
C2536      C2537   1.404       .  A
C2537      C2538   1.401       .  A
C2537      H2544   1.081       .  S
C2538      S2540   1.803       .  S
S2539      H3522   1.407       .  S
S2540      H2541   1.405       .  S
H2542      S3519   1.407       .  S
C2545      C2546   1.408       .  A
C2545      C2550   1.420       .  A
C2546      C2547   1.404       .  A
C2546      H2555   1.083       .  S
C2547      C2548   1.412       .  A
C2547      S2551   1.803       .  S
C2548      C2549   1.399       .  A
C2549      C2550   1.396       .  A
C2549      H2556   1.084       .  S
C2550      S2552   1.809       .  S
S2551      H2554   1.406       .  S
S2552      H2553   1.401       .  S
C2557      C2558   1.399       .  A
C2557      C2562   1.418       .  A
C2558      C2559   1.394       .  A
C2558      H2567   1.084       .  S
C2559      C2560   1.415       .  A
C2559      S2563   1.803       .  S
C2560      C2561   1.403       .  A
C2561      C2562   1.409       .  A
C2561      H2568   1.084       .  S
C2562      S2564   1.801       .  S
S2563      H2566   1.407       .  S
S2564      H2565   1.404       .  S
C2569      C2570   1.410       .  A
C2569      C2574   1.419       .  A
C2570      C2571   1.397       .  A
C2570      H2579   1.083       .  S
C2571      C2572   1.414       .  A
C2571      S2575   1.810       .  S
C2572      C2573   1.405       .  A
C2573      C2574   1.406       .  A
C2573      H2580   1.084       .  S
C2574      S2576   1.799       .  S
S2575      H2578   1.399       .  S
S2576      H2577   1.408       .  S
C2581      C2582   1.398       .  A
C2581      C2586   1.415       .  A
C2582      C2583   1.394       .  A
C2582      H2591   1.085       .  S
C2583      C2584   1.419       .  A
C2583      S2587   1.806       .  S
C2584      C2585   1.405       .  A
C2585      C2586   1.408       .  A
C2585      H2592   1.083       .  S
S2587      H2590   1.407       .  S
S2588      H2589   1.405       .  S
C2593      C2594   1.401       .  A
C2593      C2598   1.415       .  A
C2594      C2595   1.400       .  A
C2594      H2603   1.080       .  S
C2595      C2596   1.415       .  A
C2595      S2599   1.810       .  S
C2596      C2597   1.403       .  A
C2597      C2598   1.405       .  A
C2597      H2604   1.084       .  S
C2598      S3580   1.801       .  S
S2599      H2602   1.407       .  S
S2600      C3578   1.802       .  S
S2600      H2601   1.401       .  S
C2605      C2606   1.406       .  A
C2605      C2610   1.420       .  A
C2606      C2607   1.401       .  A
C2606      H2615   1.083       .  S
C2607      C2608   1.412       .  A
C2607      S2611   1.804       .  S
C2608      C2609   1.402       .  A
C2609      C2610   1.405       .  A
C2609      H2616   1.084       .  S
C2610      S2612   1.807       .  S
S2611      H2614   1.407       .  S
S2612      H2613   1.403       .  S
C2617      C2618   1.410       .  A
C2617      C2622   1.415       .  A
C2618      C2619   1.409       .  A
C2618      H2627   1.083       .  S
C2619      C2620   1.413       .  A
C2619      S2623   1.802       .  S
C2620      C2621   1.407       .  A
C2621      C2622   1.407       .  A
C2621      H2628   1.084       .  S
C2622      S2624   1.803       .  S
S2623      H2626   1.405       .  S
S2624      H2625   1.407       .  S
C2629      C2630   1.399       .  A
C2629      C2634   1.416       .  A
C2630      C2631   1.392       .  A
C2630      H2639   1.085       .  S
C2631      C2632   1.420       .  A
C2631      S2635   1.806       .  S
C2632      C2633   1.408       .  A
C2633      C2634   1.411       .  A
C2633      H2640   1.083       .  S
C2634      S2636   1.806       .  S
S2635      H2638   1.408       .  S
S2636      H2637   1.401       .  S
C2641      C2642   1.403       .  A
C2641      C2646   1.422       .  A
C2642      C2643   1.407       .  A
C2642      H2651   1.083       .  S
C2643      C2644   1.420       .  A
C2643      S2647   1.809       .  S
C2644      C2645   1.401       .  A
C2645      C2646   1.401       .  A
C2645      H2652   1.084       .  S
C2646      S2648   1.808       .  S
S2647      H2650   1.407       .  S
S2648      H2649   1.403       .  S
C2653      C2654   1.406       .  A
C2653      C2658   1.418       .  A
C2654      C2655   1.401       .  A
C2654      H2663   1.084       .  S
C2655      C2656   1.421       .  A
C2655      S2659   1.803       .  S
C2656      C2657   1.410       .  A
C2657      C2658   1.404       .  A
C2657      H2664   1.083       .  S
C2658      S2660   1.803       .  S
S2659      H2662   1.404       .  S
S2660      H2661   1.406       .  S
C2665      C2666   1.408       .  A
C2665      C2670   1.424       .  A
C2666      C2667   1.401       .  A
C2666      H2675   1.084       .  S
C2667      C2668   1.413       .  A
C2667      S2671   1.803       .  S
C2668      C2669   1.401       .  A
C2669      C2670   1.399       .  A
C2669      H3656   1.084       .  S
C2670      S2672   1.804       .  S
S2671      H2674   1.407       .  S
S2672      H2673   1.405       .  S
H2676      C3649   1.084       .  S
C2677      C2678   1.412       .  A
C2677      C2682   1.415       .  A
C2678      C2679   1.403       .  A
C2678      H2687   1.084       .  S
C2679      C2680   1.412       .  A
C2679      S2683   1.805       .  S
C2680      C2681   1.407       .  A
C2681      C2682   1.398       .  A
C2681      H2688   1.085       .  S
C2682      S2684   1.798       .  S
S2683      H2686   1.404       .  S
S2684      H2685   1.405       .  S
C2689      C2690   1.406       .  A
C2689      C2694   1.410       .  A
C2690      C2691   1.398       .  A
C2690      H2699   1.084       .  S
C2691      C2692   1.413       .  A
C2691      S2695   1.804       .  S
C2692      C2693   1.409       .  A
C2693      C2694   1.396       .  A
C2693      H2700   1.084       .  S
C2694      S2696   1.805       .  S
S2695      H2698   1.406       .  S
S2696      H2697   1.405       .  S
C2701      C2702   1.406       .  A
C2701      C2706   1.391       .  A
C2702      C2703   1.478       .  A
C2702      H2711   1.063       .  S
C2703      C2704   1.522       .  A
C2704      C2705   1.409       .  A
C2705      C2706   1.377       .  A
C2705      H2712   1.081       .  S
C2706      S2708   1.808       .  S
S2707      H2710   1.422       .  S
S2708      H2709   1.405       .  S
C2713      C2714   1.398       .  A
C2713      C2718   1.409       .  A
C2714      C2715   1.394       .  A
C2714      H2723   1.084       .  S
C2715      C2716   1.415       .  A
C2715      S2719   1.802       .  S
C2716      C2717   1.408       .  A
C2717      C2718   1.406       .  A
C2717      H2724   1.083   1_545  S
C2718      S2720   1.805       .  S
S2719      H2722   1.406       .  S
S2720      H2721   1.407   1_545  S
C2725      C2726   1.401       .  A
C2725      C2730   1.409       .  A
C2726      C2727   1.406       .  A
C2726      H2735   1.084       .  S
C2727      C2728   1.424       .  A
C2727      S2731   1.804       .  S
C2728      C2729   1.411       .  A
C2729      C2730   1.401       .  A
C2729      H2736   1.081       .  S
C2730      S3712   1.810       .  S
S2731      H2734   1.406       .  S
S2732      C3710   1.811       .  S
S2732      H2733   1.407       .  S
C2737      C2738   1.410       .  A
C2737      C2742   1.421       .  A
C2738      C2739   1.398       .  A
C2738      H2747   1.082       .  S
C2739      C2740   1.415       .  A
C2739      S2743   1.810       .  S
C2740      C2741   1.403       .  A
C2741      C2742   1.403       .  A
C2741      H2748   1.084       .  S
C2742      S2744   1.805       .  S
S2743      H2746   1.401       .  S
S2744      H2745   1.407       .  S
C2749      C2750   1.701       .  A
C2749      C2754   1.728       .  A
C2750      C2751   1.666       .  A
C2750      H2759   1.077       .  S
C2751      C2752   1.691       .  A
C2751      S2755   1.791       .  S
C2752      C2753   1.709       .  A
C2753      C2754   1.698       .  A
C2753      H2760   1.082       .  S
C2754      S2756   1.804       .  S
S2755      H2758   1.403       .  S
S2756      H2757   1.391       .  S
C2761      C2762   1.407       .  A
C2761      C2766   1.416       .  A
C2762      C2763   1.399       .  A
C2762      H2771   1.083       .  S
C2763      C2764   1.414       .  A
C2763      S2767   1.805       .  S
C2764      C2765   1.403       .  A
C2765      C2766   1.397       .  A
C2765      H2772   1.083       .  S
C2766      S2768   1.802       .  S
S2767      H2770   1.406       .  S
S2768      H2769   1.406       .  S
C2773      C2774   1.410       .  A
C2773      C2778   1.411       .  A
C2774      C2775   1.403       .  A
C2774      H2783   1.083       .  S
C2775      C2776   1.414       .  A
C2775      S2779   1.803       .  S
C2776      C2777   1.404       .  A
C2777      C2778   1.393       .  A
C2777      H2784   1.084       .  S
C2778      S2780   1.798       .  S
S2779      H2782   1.406       .  S
S2780      H2781   1.406       .  S
C2785      C2786   1.410       .  A
C2785      C2790   1.418       .  A
C2786      C2787   1.404       .  A
C2786      H2795   1.083       .  S
C2787      C2788   1.419       .  A
C2787      S2791   1.804       .  S
C2788      C2789   1.409       .  A
C2789      C2790   1.402       .  A
C2789      H2796   1.082       .  S
C2790      S2792   1.804       .  S
S2791      H2794   1.406       .  S
S2792      H2793   1.407       .  S
C2797      C2798   1.407       .  A
C2797      C2802   1.413       .  A
C2798      C2799   1.402       .  A
C2798      H2807   1.083       .  S
C2799      C2800   1.409       .  A
C2799      S2803   1.805       .  S
C2800      C2801   1.410       .  A
C2801      C2802   1.408       .  A
C2801      H2808   1.084       .  S
C2802      S2804   1.802       .  S
S2803      H2806   1.406       .  S
S2804      H2805   1.406       .  S
C2809      C2810   1.404       .  A
C2809      C2814   1.427       .  A
C2810      C2811   1.403       .  A
C2810      H2819   1.084       .  S
C2811      C2812   1.415       .  A
C2811      S2815   1.798       .  S
C2812      C2813   1.396       .  A
C2813      C2814   1.395       .  A
C2813      H2820   1.085       .  S
C2814      S2816   1.806       .  S
S2815      H3798   1.406       .  S
S2816      H2817   1.408       .  S
H2818      S3795   1.406       .  S
C2821      C2822   1.401       .  A
C2821      C2826   1.417       .  A
C2822      C2823   1.397       .  A
C2822      H2831   1.084       .  S
C2823      C2824   1.421       .  A
C2823      S2827   1.805       .  S
C2824      C2825   1.408       .  A
C2825      C2826   1.409       .  A
C2825      H2832   1.084       .  S
C2826      S2828   1.802       .  S
S2827      H2830   1.408       .  S
S2828      H2829   1.405       .  S
C2833      C2834   1.401       .  A
C2833      C2838   1.413       .  A
C2834      C2835   1.404       .  A
C2834      H2843   1.084       .  S
C2835      C2836   1.421       .  A
C2835      S2839   1.806       .  S
C2836      C2837   1.406       .  A
C2837      C2838   1.405       .  A
C2837      H2844   1.079       .  S
C2838      S2840   1.803       .  S
S2839      H2842   1.405       .  S
S2840      H2841   1.407       .  S
C2845      C2846   1.403       .  A
C2845      C2850   1.412       .  A
C2846      C2847   1.402       .  A
C2846      H2855   1.084       .  S
C2847      C2848   1.416       .  A
C2847      S2851   1.800       .  S
C2848      C2849   1.406       .  A
C2849      C2850   1.397       .  A
C2849      H2856   1.084       .  S
C2850      S2852   1.801       .  S
S2851      H2854   1.407       .  S
S2852      H2853   1.404       .  S
C2857      C2858   1.403       .  A
C2857      C2862   1.407       .  A
C2858      C2859   1.401       .  A
C2858      H2867   1.084       .  S
C2859      C2860   1.414       .  A
C2859      S2863   1.799       .  S
C2860      C2861   1.409       .  A
C2861      C2862   1.397       .  A
C2861      H2868   1.084       .  S
C2862      S2864   1.803       .  S
S2863      H2866   1.406       .  S
S2864      H2865   1.407       .  S
C2869      C2870   1.402       .  A
C2869      C2874   1.411       .  A
C2870      C2871   1.399       .  A
C2870      H2879   1.084       .  S
C2871      C2872   1.416       .  A
C2871      S2875   1.809       .  S
C2872      C2873   1.404       .  A
C2873      C2874   1.400       .  A
C2873      H2880   1.081       .  S
C2874      S2876   1.800       .  S
S2875      H2878   1.398       .  S
S2876      H2877   1.405   1_556  S
C2881      C2882   1.399       .  A
C2881      C2886   1.416       .  A
C2882      C2883   1.404       .  A
C2882      H2891   1.084       .  S
C2883      C2884   1.425       .  A
C2883      S2887   1.803   1_554  S
C2884      C2885   1.403       .  A
C2885      C2886   1.404       .  A
C2885      H2892   1.082       .  S
C2886      S2888   1.809       .  S
S2887      H2890   1.402       .  S
S2888      H2889   1.406       .  S
C2893      C2894   1.404       .  A
C2893      C2898   1.419       .  A
C2894      C2895   1.395       .  A
C2894      H2903   1.084       .  S
C2895      C2896   1.415       .  A
C2895      S2899   1.801       .  S
C2896      C2897   1.407       .  A
C2897      C2898   1.412       .  A
C2897      H2904   1.083       .  S
C2898      S2900   1.801       .  S
S2899      H2902   1.401       .  S
S2900      H2901   1.407       .  S
C2905      C2906   1.403       .  A
C2905      C2910   1.414       .  A
C2906      C2907   1.403       .  A
C2906      H2915   1.084       .  S
C2907      C2908   1.414       .  A
C2907      S3891   1.804       .  S
C2908      C2909   1.400       .  A
C2909      C2910   1.399       .  A
C2909      H2916   1.081       .  S
C2910      S2912   1.808       .  S
S2911      C3887   1.805       .  S
S2911      H2914   1.402       .  S
S2912      H2913   1.407       .  S
C2917      C2918   1.412       .  A
C2917      C2922   1.418       .  A
C2918      C2919   1.394       .  A
C2918      H2927   1.083       .  S
C2919      C2920   1.408       .  A
C2919      S2923   1.805       .  S
C2920      C2921   1.407       .  A
C2921      C2922   1.406       .  A
C2921      H2928   1.084       .  S
C2922      S2924   1.801       .  S
S2924      H2925   1.408       .  S
C2929      C2930   1.405       .  A
C2929      C2934   1.429       .  A
C2930      C2931   1.405       .  A
C2930      H2939   1.084       .  S
C2931      C2932   1.418       .  A
C2931      S2935   1.806       .  S
C2932      C2933   1.396       .  A
C2933      C2934   1.406       .  A
C2933      H2940   1.083       .  S
C2934      S2936   1.811       .  S
S2935      H2938   1.402       .  S
S2936      H2937   1.407       .  S
O2941     Ni2947   1.929       .  S
O2941      C2962   1.272       .  A
O2942     Ni2965   1.945   1_556  S
O2942      C2951   1.280       .  A
O2943     Ni2947   1.897       .  S
O2943     Ni2965   1.919       .  S
O2943     Ni2959   1.915       .  S
O2943      H2966   0.966       .  S
C2944      O2961   1.280       .  A
C2944      O2953   1.279       .  A
C2944      C3849   1.475       .  S
O2945     Ni2964   1.910       .  S
O2945      C2951   1.263       .  A
O2946     Ni2964   1.903       .  S
O2946      C2948   1.265   1_556  A
Ni2947     O2950   1.921       .  S
Ni2947     O2952   1.897       .  S
C2948      O2958   1.278       .  A
C2948      C3864   1.494       .  S
O2949     Ni2965   1.926       .  S
O2949      C2955   1.280       .  A
O2950      C2955   1.277       .  A
C2951      C3909   1.499       .  S
O2952      C2954   1.268   1_554  A
O2953     Ni2964   1.916       .  S
C2954      O2960   1.278       .  A
C2954      C3873   1.492       .  S
C2955      C3897   1.496       .  S
H2956      O2957   0.965       .  S
O2957     Ni2965   1.917   1_556  S
O2957     Ni2959   1.891   1_556  S
O2957     Ni2964   1.881       .  S
O2958     Ni2959   1.945       .  S
Ni2959     O2963   1.916       .  S
Ni2959     O2961   1.935   1_554  S
O2960     Ni2965   1.956   1_556  S
C2962      O2963   1.270       .  A
C2962      C3885   1.480       .  S
O2967     Ni2973   1.911       .  S
O2967      C2988   1.267       .  A
O2968     Ni2991   1.911       .  S
O2968      C2977   1.265       .  A
O2969     Ni2973   1.894       .  S
O2969     Ni2991   1.897       .  S
O2969     Ni2985   1.930       .  S
O2969      H2992   0.966       .  S
C2970      O2987   1.288       .  A
C2970      O2979   1.272       .  A
C2970      C3789   1.492       .  S
O2971     Ni2990   1.922       .  S
O2971      C2977   1.268       .  A
O2972     Ni2990   1.893       .  S
O2972      C2974   1.265       .  A
Ni2973     O2976   1.926       .  S
Ni2973     O2978   1.905       .  S
C2974      O2984   1.279       .  A
C2974      C3804   1.496       .  S
O2975     Ni2991   1.919       .  S
O2975      C2981   1.276       .  A
O2976      C2981   1.280       .  A
C2977      C3828   1.486       .  S
O2978      C2980   1.265       .  A
O2979     Ni2990   1.906       .  S
C2980      O2986   1.276       .  A
C2980      C3813   1.484       .  S
C2981      C3837   1.471       .  S
H2982      O2983   0.967       .  S
O2983     Ni2991   1.911       .  S
O2983     Ni2985   1.913       .  S
O2983     Ni2990   1.902       .  S
O2984     Ni2985   1.956       .  S
Ni2985     O2989   1.947       .  S
Ni2985     O2987   1.944       .  S
O2986     Ni2991   1.946       .  S
C2988      O2989   1.280       .  A
C2988      C3777   1.488       .  S
N2993      H3025   1.043       .  S
N2993      C2997   1.353       .  A
N2994      C3001   1.346       .  A
N2994      C3002   1.353       .  A
N2995      H3026   1.044       .  S
N2995      C2999   1.358       .  A
N2996      C3003   1.353       .  A
N2996      C3004   1.349       .  A
C2997      C3005   1.391       .  A
C2997      C3013   1.423       .  A
C2998      C3014   1.420       .  A
C2998      C3006   1.385       .  A
C2999      C3007   1.390       .  A
C2999      C3016   1.428       .  A
C3000      C3015   1.414       .  A
C3000      C3008   1.384   1_565  A
C3001      C3013   1.410       .  A
C3001      C3009   1.386       .  A
C3002      C3016   1.414       .  A
C3002      C3010   1.382       .  A
C3003      C3011   1.385       .  A
C3003      C3014   1.415       .  A
C3004      C3012   1.387       .  A
C3004      C3015   1.415       .  A
C3005      H3017   1.081       .  S
C3006      H3018   1.082       .  S
C3007      H3019   1.075       .  S
C3008      H3020   1.078   1_545  S
C3009      C3010   1.379       .  A
C3009      H3021   1.076       .  S
C3010      H3022   1.080       .  S
C3011      C3012   1.375       .  A
C3011      H3023   1.082       .  S
C3012      H3024   1.081       .  S
C3013      C3756   1.491       .  S
C3014      C3765   1.512       .  S
C3015      C3744   1.491       .  S
C3016      C3729   1.527       .  S
N3027      H3059   1.044       .  S
N3027      C3032   1.349       .  A
N3027      C3031   1.351       .  A
N3028      C3035   1.354       .  A
N3028      C3036   1.347       .  A
N3029      H3060   1.041       .  S
N3029      C3034   1.350       .  A
N3029      C3033   1.347       .  A
N3030      C3037   1.352       .  A
N3030      C3038   1.350       .  A
C3031      C3039   1.387       .  A
C3031      C3047   1.418       .  A
C3032      C3048   1.416       .  A
C3032      C3040   1.388       .  A
C3033      C3041   1.386       .  A
C3033      C3050   1.408       .  A
C3034      C3049   1.412       .  A
C3034      C3042   1.388       .  A
C3035      C3047   1.417       .  A
C3035      C3043   1.387       .  A
C3036      C3050   1.406       .  A
C3036      C3044   1.376       .  A
C3037      C3045   1.386       .  A
C3037      C3048   1.415       .  A
C3038      C3046   1.378       .  A
C3038      C3049   1.410       .  A
C3039      C3040   1.385       .  A
C3039      H3051   1.082       .  S
C3040      H3052   1.082       .  S
C3041      C3042   1.383       .  A
C3041      H3053   1.082       .  S
C3042      H3054   1.082       .  S
C3043      C3044   1.378       .  A
C3043      H3055   1.082       .  S
C3044      H3056   1.075       .  S
C3045      C3046   1.377       .  A
C3045      H3057   1.082       .  S
C3046      H3058   1.072       .  S
C3047      C3708   1.513       .  S
C3048      C3717   1.509       .  S
C3049      C3681   1.499       .  S
C3050      C3693   1.482       .  S
N3061      H3093   1.043       .  S
N3061      C3065   1.356       .  A
N3062      C3069   1.349       .  A
N3062      C3070   1.347       .  A
N3063      H3094   1.038       .  S
N3063      C3067   1.356       .  A
N3064      C3071   1.353       .  A
N3064      C3072   1.350       .  A
C3065      C3073   1.387       .  A
C3065      C3081   1.421       .  A
C3066      C3082   1.418       .  A
C3066      C3074   1.386       .  A
C3067      C3075   1.388       .  A
C3067      C3084   1.422       .  A
C3068      C3083   1.418       .  A
C3068      C3076   1.388       .  A
C3069      C3081   1.413       .  A
C3069      C3077   1.384       .  A
C3070      C3084   1.411       .  A
C3070      C3078   1.386       .  A
C3071      C3079   1.385       .  A
C3071      C3082   1.415       .  A
C3072      C3080   1.388       .  A
C3072      C3083   1.414       .  A
C3073      H3085   1.081       .  S
C3074      H3086   1.082       .  S
C3075      H3087   1.082       .  S
C3076      H3088   1.082       .  S
C3077      C3078   1.376       .  A
C3077      H3089   1.082       .  S
C3078      H3090   1.078       .  S
C3079      C3080   1.376       .  A
C3079      H3091   1.082       .  S
C3080      H3092   1.081       .  S
C3081      C3645   1.506       .  S
C3082      C3633   1.506       .  S
C3083      C3669   1.486       .  S
C3084      C3660   1.496       .  S
C3095      C3780   1.492       .  S
C3095      C3100   1.405       .  A
C3096      C3621   1.494       .  S
C3096      C3097   1.407       .  A
C3097      C3098   1.400       .  A
C3097      H3102   1.084       .  S
C3098      C3720   1.486       .  S
C3099      C3753   1.498       .  S
C3099      C3100   1.406       .  A
C3100      H3101   1.085       .  S
C3103      C3609   1.484       .  S
C3103      C3108   1.403       .  A
C3104      C3801   1.492       .  S
C3104      C3105   1.409       .  A
C3105      C3106   1.409       .  A
C3105      H3110   1.085       .  S
C3106      C3705   1.484       .  S
C3107      C3657   1.501       .  S
C3107      C3108   1.403       .  A
C3108      H3109   1.085       .  S
C3111      C3600   1.495       .  S
C3111      C3112   1.417       .  A
C3111      C3116   1.404       .  A
C3112      C3912   1.487       .  S
C3112      C3113   1.407       .  A
C3113      C3114   1.406       .  A
C3113      H3118   1.083       .  S
C3114      C3636   1.509       .  S
C3114      C3115   1.428       .  A
C3115      C3741   1.498       .  S
C3115      C3116   1.411       .  A
C3116      H3117   1.084       .  S
C3119      C3585   1.498       .  S
C3119      C3120   1.418       .  A
C3119      C3124   1.415       .  A
C3120      C3840   1.491       .  S
C3120      C3121   1.399       .  A
C3121      C3122   1.399       .  A
C3121      H3126   1.085       .  S
C3122      C3672   1.489       .  S
C3122      C3123   1.426       .  A
C3123      C3768   1.511       .  S
C3123      C3124   1.417       .  A
C3124      H3125   1.083       .  S
C3127      C3852   1.480       .  S
C3127      C3132   1.402       .  A
C3128      C3573   1.486       .  S
C3128      C3129   1.406       .  A
C3129      C3130   1.405       .  A
C3129      H3134   1.084       .  S
C3130      C3648   1.491       .  S
C3131      C3696   1.489       .  S
C3131      C3132   1.402       .  A
C3132      H3133   1.085       .  S
C3135      C3876   1.493       .  S
C3135      C3140   1.405       .  A
C3136      C3561   1.483       .  S
C3136      C3137   1.416       .  A
C3137      C3138   1.417       .  A
C3137      H3142   1.081       .  S
C3138      C3684   1.530       .  S
C3139      C3732   1.411       .  S
C3139      C3140   1.395       .  A
C3140      H3141   1.084       .  S
O3143     Ni3149   1.926       .  S
O3143      C3164   1.270       .  A
O3144     Ni3167   1.943       .  S
O3144      C3153   1.277       .  A
O3145     Ni3149   1.905       .  S
O3145     Ni3167   1.923       .  S
O3145     Ni3161   1.923       .  S
O3145      H3168   0.967       .  S
C3146      O3163   1.284       .  A
C3146      O3155   1.277       .  A
C3146      C3528   1.474       .  S
O3147     Ni3166   1.902       .  S
O3147      C3153   1.263       .  A
O3148     Ni3166   1.899       .  S
O3148      C3150   1.264       .  A
Ni3149     O3152   1.920       .  S
Ni3149     O3154   1.894       .  S
C3150      O3160   1.277       .  A
C3150      C3624   1.490       .  S
O3151     Ni3167   1.937       .  S
O3151      C3157   1.282       .  A
O3152      C3157   1.273       .  A
C3153      C3540   1.480       .  S
O3154      C3156   1.267       .  A
O3155     Ni3166   1.907       .  S
C3156      O3162   1.277       .  A
C3156      C3549   1.499       .  S
C3157      C3612   1.492       .  S
H3158      O3159   0.966       .  S
O3159     Ni3167   1.926       .  S
O3159     Ni3161   1.895       .  S
O3159     Ni3166   1.893       .  S
O3160     Ni3161   1.944       .  S
Ni3161     O3165   1.924       .  S
Ni3161     O3163   1.944       .  S
O3162     Ni3167   1.953       .  S
C3164      O3165   1.271       .  A
C3164      C3588   1.481       .  S
O3169     Ni3175   1.921       .  S
O3169      C3190   1.271       .  A
O3170     Ni3193   1.922       .  S
O3170      C3179   1.272       .  A
O3171     Ni3175   1.892       .  S
O3171     Ni3193   1.900   1_554  S
O3171     Ni3187   1.916   1_554  S
O3171      H3194   0.965       .  S
C3172      O3189   1.280       .  A
C3172      O3181   1.274       .  A
C3172      C3564   1.484       .  S
O3173     Ni3192   1.920       .  S
O3173      C3179   1.269       .  A
O3174     Ni3192   1.890       .  S
O3174      C3176   1.263   1_556  A
Ni3175     O3178   1.917       .  S
Ni3175     O3180   1.918       .  S
C3176      O3186   1.281       .  A
C3176      C3501   1.498       .  S
O3177     Ni3193   1.934   1_554  S
O3177      C3183   1.280       .  A
O3178      C3183   1.277       .  A
C3179      C3576   1.482       .  S
O3180      C3182   1.269   1_554  A
O3181     Ni3192   1.921       .  S
C3182      O3188   1.278       .  A
C3182      C3597   1.494       .  S
C3183      C3513   1.471       .  S
H3184      O3185   0.960       .  S
O3185     Ni3193   1.913       .  S
O3185     Ni3187   1.916       .  S
O3185     Ni3192   1.898       .  S
O3186     Ni3187   1.967   1_554  S
Ni3187     O3191   1.936   1_556  S
Ni3187     O3189   1.928       .  S
O3188     Ni3193   1.947       .  S
C3190      O3191   1.278       .  A
C3190      C3489   1.494       .  S
N3195      H3227   1.041       .  S
N3195      C3200   1.348       .  A
N3196      C3203   1.353       .  A
N3196      C3204   1.347       .  A
N3197      H3228   1.037       .  S
N3197      C3202   1.355       .  A
N3198      C3205   1.356       .  A
N3198      C3206   1.354       .  A
C3199      C3207   1.385       .  A
C3199      C3215   1.408       .  A
C3200      C3216   1.411       .  A
C3200      C3208   1.388       .  A
C3201      C3209   1.383       .  A
C3201      C3218   1.416       .  A
C3202      C3217   1.424       .  A
C3202      C3210   1.391       .  A
C3203      C3215   1.415       .  A
C3203      C3211   1.387       .  A
C3204      C3218   1.410       .  A
C3204      C3212   1.380       .  A
C3205      C3213   1.383       .  A
C3205      C3216   1.418       .  A
C3206      C3214   1.389       .  A
C3206      C3217   1.425       .  A
C3207      H3219   1.082       .  S
C3208      H3220   1.082       .  S
C3209      H3221   1.082       .  S
C3210      H3222   1.078       .  S
C3211      C3212   1.368       .  A
C3211      H3223   1.079       .  S
C3212      H3224   1.075       .  S
C3213      C3214   1.367       .  A
C3213      H3225   1.080       .  S
C3214      H3226   1.079       .  S
C3215      C3477   1.495       .  S
C3216      C3456   1.498       .  S
C3217      C3441   1.499       .  S
C3218      C3468   1.489       .  S
N3229      H3261   1.041       .  S
N3229      C3234   1.351       .  A
N3229      C3233   1.350       .  A
N3230      C3237   1.350       .  A
N3230      C3238   1.347       .  A
N3231      H3262   1.041       .  S
N3231      C3236   1.351       .  A
N3231      C3235   1.354       .  A
N3232      C3239   1.352       .  A
N3232      C3240   1.350       .  A
C3233      C3241   1.388       .  A
C3233      C3249   1.414       .  A
C3234      C3250   1.408       .  A
C3234      C3242   1.384       .  A
C3235      C3243   1.386       .  A
C3235      C3252   1.413       .  A
C3236      C3251   1.416       .  A
C3236      C3244   1.388       .  A
C3237      C3249   1.413       .  A
C3237      C3245   1.387       .  A
C3238      C3252   1.409       .  A
C3238      C3246   1.384       .  A
C3239      C3247   1.385       .  A
C3239      C3250   1.414       .  A
C3240      C3248   1.387       .  A
C3240      C3251   1.414       .  A
C3241      C3242   1.377       .  A
C3241      H3253   1.082       .  S
C3242      H3254   1.082       .  S
C3243      C3244   1.377       .  A
C3243      H3255   1.082       .  S
C3244      H3256   1.082       .  S
C3245      C3246   1.379       .  A
C3245      H3257   1.082       .  S
C3246      H3258   1.079       .  S
C3247      C3248   1.375       .  A
C3247      H3259   1.082       .  S
C3248      H3260   1.082       .  S
C3249      C3396   1.495       .  S
C3250      C3420   1.493       .  S
C3251      C3429   1.491       .  S
C3252      C3408   1.484       .  S
C3263      C3792   1.482       .  S
C3263      C3268   1.402       .  A
C3264      C3552   1.488       .  S
C3264      C3265   1.403       .  A
C3265      C3266   1.405       .  A
C3265      H3270   1.085       .  S
C3266      C3417   1.480       .  S
C3267      C3444   1.526       .  S
C3267      C3268   1.407       .  A
C3268      H3269   1.081       .  S
N3271      H3303   1.040       .  S
N3271      C3276   1.359   1_545  A
N3272      C3279   1.352       .  A
N3272      C3280   1.353       .  A
N3273      H3304   1.040   1_565  S
N3273      C3278   1.354       .  A
N3274      C3281   1.355       .  A
N3274      C3282   1.356       .  A
C3275      C3283   1.386       .  A
C3275      C3291   1.425       .  A
C3276      C3292   1.429       .  A
C3276      C3284   1.391       .  A
C3277      C3285   1.391       .  A
C3277      C3294   1.426       .  A
C3278      C3293   1.418       .  A
C3278      C3286   1.385       .  A
C3279      C3291   1.419       .  A
C3279      C3287   1.386       .  A
C3280      C3294   1.419       .  A
C3280      C3288   1.386       .  A
C3281      C3289   1.387       .  A
C3281      C3292   1.424       .  A
C3282      C3290   1.385       .  A
C3282      C3293   1.422       .  A
C3283      H3295   1.081       .  S
C3284      H3296   1.079       .  S
C3285      H3297   1.080       .  S
C3286      H3298   1.082       .  S
C3287      C3288   1.375       .  A
C3287      H3299   1.082       .  S
C3288      H3300   1.079       .  S
C3289      C3290   1.371       .  A
C3289      H3301   1.079       .  S
C3290      H3302   1.081       .  S
C3291      C3369   1.512       .  S
C3292      C3345   1.507       .  S
C3293      C3357   1.509       .  S
C3294      C3384   1.505       .  S
C3305      C3888   1.479       .  S
C3305      C3310   1.402       .  A
C3306      C3516   1.482       .  S
C3306      C3307   1.405       .  A
C3307      C3308   1.403       .  A
C3307      H3312   1.085       .  S
C3308      C3432   1.483       .  S
C3309      C3453   1.476       .  S
C3309      C3310   1.398       .  A
C3310      H3311   1.085       .  S
C3313      C3825   1.484       .  S
C3313      C3314   1.414       .  A
C3313      C3318   1.408       .  A
C3314      C3525   1.493       .  S
C3314      C3315   1.402       .  A
C3315      C3316   1.404       .  A
C3315      H3320   1.084       .  S
C3316      C3465   1.486       .  S
C3316      C3317   1.425       .  A
C3317      C3372   1.511       .  S
C3317      C3318   1.408       .  A
C3318      H3319   1.083       .  S
C3321      C3492   1.489       .  S
C3321      C3322   1.418       .  A
C3321      C3326   1.403       .  A
C3322      C3861   1.490       .  S
C3322      C3323   1.407       .  A
C3323      C3324   1.406       .  A
C3323      H3328   1.085       .  S
C3324      C3381   1.508       .  S
C3324      C3325   1.424       .  A
C3325      C3480   1.479       .  S
C3325      C3326   1.403       .  A
C3326      H3327   1.085       .  S
C3329      C3537   1.485       .  S
C3329      C3334   1.406       .  A
C3330      C3816   1.500       .  S
C3330      C3331   1.409       .  A
C3331      C3332   1.402       .  A
C3331      H3336   1.085       .  S
C3332      C3393   1.483       .  S
C3333      C3348   1.491       .  S
C3333      C3334   1.400       .  A
C3334      H3335   1.085       .  S
C3337      C3504   1.502       .  S
C3337      C3342   1.413       .  A
C3338      C3900   1.484       .  S
C3338      C3339   1.397       .  A
C3339      C3340   1.399   1_655  A
C3339      H3344   1.085       .  S
C3340      C3405   1.492   1_455  S
C3341      C3360   1.504       .  S
C3341      C3342   1.415       .  A
C3342      H3343   1.083       .  S
C3345      C3346   1.408       .  A
C3345      C3350   1.421       .  A
C3346      C3347   1.396       .  A
C3346      H3355   1.083       .  S
C3347      C3348   1.409       .  A
C3347      S3351   1.805       .  S
C3348      C3349   1.405       .  A
C3349      C3350   1.405       .  A
C3349      H3356   1.084       .  S
C3350      S3352   1.806       .  S
S3351      H3354   1.405       .  S
S3352      H3353   1.405       .  S
C3357      C3358   1.404       .  A
C3357      C3362   1.420       .  A
C3358      C3359   1.398       .  A
C3358      H3367   1.080       .  S
C3359      C3360   1.416       .  A
C3360      C3361   1.406       .  A
C3361      C3362   1.404       .  A
C3361      H3368   1.083       .  S
C3362      S3364   1.805       .  S
S3363      H3366   1.406       .  S
S3364      H3365   1.407       .  S
C3369      C3370   1.406       .  A
C3369      C3374   1.416       .  A
C3370      C3371   1.403       .  A
C3370      H3379   1.084       .  S
C3371      C3372   1.423       .  A
C3371      S3375   1.803       .  S
C3372      C3373   1.407       .  A
C3373      C3374   1.401       .  A
C3373      H3380   1.082       .  S
C3374      S3376   1.797       .  S
S3375      H3378   1.407       .  S
S3376      H3377   1.407       .  S
C3381      C3382   1.413       .  A
C3381      C3386   1.415       .  A
C3382      C3383   1.405       .  A
C3382      H3391   1.082       .  S
C3383      C3384   1.416       .  A
C3383      S3387   1.807       .  S
C3384      C3385   1.407       .  A
C3385      C3386   1.400       .  A
C3385      H3392   1.084       .  S
C3386      S3388   1.799       .  S
S3387      H3390   1.405       .  S
S3388      H3389   1.406       .  S
C3393      C3394   1.394       .  A
C3393      C3398   1.410       .  A
C3394      C3395   1.391       .  A
C3395      C3396   1.416       .  A
C3396      C3397   1.409       .  A
C3397      C3398   1.410       .  A
C3397      H3404   1.082       .  S
C3398      S3400   1.803       .  S
S3400      H3401   1.407       .  S
C3405      C3406   1.407       .  A
C3405      C3410   1.421       .  A
C3406      C3407   1.402       .  A
C3407      C3408   1.413       .  A
C3407      S3411   1.806       .  S
C3408      C3409   1.399       .  A
C3409      C3410   1.396       .  A
C3409      H3416   1.084       .  S
C3410      S3412   1.808       .  S
S3411      H3414   1.402       .  S
S3412      H3413   1.403       .  S
C3417      C3418   1.406       .  A
C3417      C3422   1.410       .  A
C3418      C3419   1.401       .  A
C3418      H3427   1.084       .  S
C3419      C3420   1.413       .  A
C3419      S3423   1.804       .  S
C3420      C3421   1.408       .  A
C3421      C3422   1.401       .  A
C3421      H3428   1.083       .  S
S3423      H3426   1.405       .  S
S3424      H3425   1.405       .  S
C3429      C3430   1.406       .  A
C3429      C3434   1.415       .  A
C3430      C3431   1.400       .  A
C3430      H3439   1.084       .  S
C3431      C3432   1.412       .  A
C3431      S3435   1.804       .  S
C3432      C3433   1.400       .  A
C3433      C3434   1.395       .  A
C3434      S3436   1.806       .  S
S3435      H3438   1.406       .  S
S3436      H3437   1.406       .  S
C3441      C3442   1.400       .  A
C3441      C3446   1.406       .  A
C3442      C3443   1.405       .  A
C3442      H3451   1.082       .  S
C3443      C3444   1.433       .  A
C3443      S3447   1.814       .  S
C3445      H3452   1.070   1_545  S
S3447      H3450   1.407       .  S
S3448      H3449   1.405       .  S
C3453      C3454   1.402       .  A
C3453      C3458   1.410       .  A
C3454      C3455   1.401       .  A
C3454      H3463   1.084       .  S
C3455      C3456   1.416       .  A
C3455      S3459   1.804       .  S
C3456      C3457   1.407       .  A
C3457      C3458   1.394       .  A
C3457      H3464   1.081       .  S
C3458      S3460   1.807       .  S
S3459      H3462   1.406       .  S
S3460      H3461   1.404       .  S
C3465      C3466   1.403       .  A
C3465      C3470   1.414       .  A
C3466      C3467   1.398       .  A
C3466      H3475   1.084       .  S
C3467      C3468   1.414       .  A
C3467      S3471   1.804       .  S
C3468      C3469   1.402       .  A
C3469      C3470   1.401       .  A
C3469      H3476   1.083       .  S
C3470      S3472   1.808       .  S
S3471      H3474   1.406       .  S
S3472      H3473   1.407       .  S
C3477      C3478   1.406       .  A
C3477      C3482   1.419       .  A
C3478      C3479   1.401       .  A
C3478      H3487   1.083       .  S
C3479      C3480   1.411       .  A
C3479      S3483   1.802       .  S
C3480      C3481   1.397       .  A
C3481      C3482   1.395       .  A
C3481      H3488   1.082       .  S
C3482      S3484   1.804       .  S
S3483      H3486   1.405       .  S
S3484      H3485   1.406       .  S
C3489      C3490   1.409       .  A
C3489      C3494   1.415       .  A
C3490      C3491   1.400       .  A
C3490      H3499   1.084       .  S
C3491      C3492   1.411       .  A
C3491      S3495   1.802       .  S
C3492      C3493   1.407       .  A
C3493      C3494   1.407       .  A
C3493      H3500   1.084       .  S
C3494      S3496   1.801       .  S
S3495      H3498   1.405       .  S
S3496      H3497   1.407   1_554  S
C3501      C3502   1.407       .  A
C3501      C3506   1.422       .  A
C3502      C3503   1.413       .  A
C3502      H3511   1.082       .  S
C3503      C3504   1.417       .  A
C3503      S3507   1.806       .  S
C3504      C3505   1.402       .  A
C3505      C3506   1.401       .  A
C3505      H3512   1.082       .  S
C3506      S3508   1.812       .  S
S3507      H3510   1.407       .  S
S3508      H3509   1.407       .  S
C3513      C3514   1.403       .  A
C3513      C3518   1.411       .  A
C3514      C3515   1.402       .  A
C3514      H3523   1.083       .  S
C3515      C3516   1.410       .  A
C3515      S3519   1.806       .  S
C3516      C3517   1.404       .  A
C3517      C3518   1.401       .  A
C3517      H3524   1.082       .  S
C3518      S3520   1.805       .  S
S3520      H3521   1.404       .  S
C3525      C3526   1.409       .  A
C3525      C3530   1.420       .  A
C3526      C3527   1.405       .  A
C3526      H3535   1.083       .  S
C3527      C3528   1.412       .  A
C3527      S3531   1.804       .  S
C3528      C3529   1.400       .  A
C3529      C3530   1.396       .  A
C3529      H3536   1.084       .  S
C3530      S3532   1.808       .  S
S3531      H3534   1.406       .  S
S3532      H3533   1.401       .  S
C3537      C3538   1.399       .  A
C3537      C3542   1.418       .  A
C3538      C3539   1.395       .  A
C3538      H3547   1.084       .  S
C3539      C3540   1.416       .  A
C3539      S3543   1.804       .  S
C3540      C3541   1.403       .  A
C3541      C3542   1.408       .  A
C3541      H3548   1.084       .  S
C3542      S3544   1.801       .  S
S3543      H3546   1.407       .  S
S3544      H3545   1.404       .  S
C3549      C3550   1.410       .  A
C3549      C3554   1.420       .  A
C3550      C3551   1.397       .  A
C3550      H3559   1.083       .  S
C3551      C3552   1.414       .  A
C3551      S3555   1.810       .  S
C3552      C3553   1.405       .  A
C3553      C3554   1.406       .  A
C3553      H3560   1.084       .  S
C3554      S3556   1.800       .  S
S3555      H3558   1.399       .  S
S3556      H3557   1.408       .  S
C3561      C3562   1.398       .  A
C3561      C3566   1.415       .  A
C3562      C3563   1.393       .  A
C3562      H3571   1.085       .  S
C3563      C3564   1.420       .  A
C3563      S3567   1.807       .  S
C3564      C3565   1.405       .  A
C3565      C3566   1.408       .  A
C3565      H3572   1.083       .  S
S3567      H3570   1.407       .  S
S3568      H3569   1.405       .  S
C3573      C3574   1.400       .  A
C3573      C3578   1.415       .  A
C3574      C3575   1.399       .  A
C3574      H3583   1.080       .  S
C3575      C3576   1.415       .  A
C3575      S3579   1.810       .  S
C3576      C3577   1.403       .  A
C3577      C3578   1.405       .  A
C3577      H3584   1.084       .  S
S3579      H3582   1.407       .  S
S3580      H3581   1.400       .  S
C3585      C3586   1.406       .  A
C3585      C3590   1.421       .  A
C3586      C3587   1.401       .  A
C3586      H3595   1.083       .  S
C3587      C3588   1.412       .  A
C3587      S3591   1.804       .  S
C3588      C3589   1.402       .  A
C3589      C3590   1.406       .  A
C3589      H3596   1.084       .  S
C3590      S3592   1.807       .  S
S3591      H3594   1.407       .  S
S3592      H3593   1.402       .  S
C3597      C3598   1.409       .  A
C3597      C3602   1.415       .  A
C3598      C3599   1.408       .  A
C3598      H3607   1.083       .  S
C3599      C3600   1.412       .  A
C3599      S3603   1.801       .  S
C3600      C3601   1.407       .  A
C3601      C3602   1.406       .  A
C3601      H3608   1.084       .  S
C3602      S3604   1.803       .  S
S3603      H3606   1.405       .  S
S3604      H3605   1.407       .  S
C3609      C3610   1.398       .  A
C3609      C3614   1.417       .  A
C3610      C3611   1.393       .  A
C3610      H3619   1.084       .  S
C3611      C3612   1.421       .  A
C3611      S3615   1.806       .  S
C3612      C3613   1.407       .  A
C3613      C3614   1.411       .  A
C3613      H3620   1.083       .  S
C3614      S3616   1.804       .  S
S3615      H3618   1.408       .  S
S3616      H3617   1.400   1_565  S
C3621      C3622   1.403       .  A
C3621      C3626   1.422       .  A
C3622      C3623   1.407       .  A
C3622      H3631   1.082       .  S
C3623      C3624   1.420       .  A
C3623      S3627   1.809       .  S
C3624      C3625   1.401       .  A
C3625      C3626   1.401       .  A
C3625      H3632   1.084       .  S
C3626      S3628   1.808       .  S
S3627      H3630   1.407       .  S
S3628      H3629   1.403       .  S
C3633      C3634   1.406       .  A
C3633      C3638   1.418       .  A
C3634      C3635   1.400       .  A
C3634      H3643   1.084       .  S
C3635      C3636   1.421       .  A
C3635      S3639   1.803       .  S
C3636      C3637   1.409       .  A
C3637      C3638   1.404       .  A
C3637      H3644   1.083       .  S
C3638      S3640   1.803       .  S
S3639      H3642   1.404       .  S
S3640      H3641   1.406       .  S
C3645      C3646   1.408       .  A
C3645      C3650   1.424       .  A
C3646      C3647   1.400       .  A
C3646      H3655   1.084       .  S
C3647      C3648   1.414       .  A
C3647      S3651   1.804       .  S
C3648      C3649   1.401       .  A
C3649      C3650   1.399       .  A
C3650      S3652   1.804       .  S
S3651      H3654   1.406       .  S
S3652      H3653   1.405       .  S
C3657      C3658   1.412       .  A
C3657      C3662   1.415       .  A
C3658      C3659   1.402       .  A
C3658      H3667   1.084       .  S
C3659      C3660   1.412       .  A
C3659      S3663   1.806       .  S
C3660      C3661   1.407       .  A
C3661      C3662   1.398       .  A
C3661      H3668   1.085       .  S
C3662      S3664   1.797       .  S
S3663      H3666   1.404       .  S
S3664      H3665   1.405       .  S
C3669      C3670   1.406       .  A
C3669      C3674   1.409       .  A
C3670      C3671   1.398       .  A
C3670      H3679   1.084       .  S
C3671      C3672   1.413       .  A
C3671      S3675   1.804       .  S
C3672      C3673   1.410       .  A
C3673      C3674   1.397       .  A
C3673      H3680   1.084       .  S
C3674      S3676   1.805       .  S
S3675      H3678   1.406       .  S
S3676      H3677   1.405       .  S
C3681      C3682   1.405       .  A
C3681      C3686   1.391       .  A
C3682      C3683   1.478       .  A
C3682      H3691   1.063       .  S
C3683      C3684   1.521       .  A
C3684      C3685   1.409       .  A
C3685      C3686   1.377       .  A
C3685      H3692   1.081       .  S
C3686      S3688   1.808       .  S
S3687      H3690   1.422       .  S
S3688      H3689   1.405       .  S
C3693      C3694   1.399       .  A
C3693      C3698   1.409       .  A
C3694      C3695   1.394       .  A
C3694      H3703   1.084       .  S
C3695      C3696   1.415       .  A
C3695      S3699   1.802       .  S
C3696      C3697   1.408       .  A
C3697      C3698   1.406       .  A
C3697      H3704   1.083       .  S
C3698      S3700   1.805       .  S
S3699      H3702   1.406       .  S
S3700      H3701   1.407       .  S
C3705      C3706   1.400       .  A
C3705      C3710   1.409       .  A
C3706      C3707   1.405       .  A
C3706      H3715   1.084       .  S
C3707      C3708   1.424       .  A
C3707      S3711   1.804       .  S
C3708      C3709   1.411       .  A
C3709      C3710   1.400       .  A
C3709      H3716   1.081       .  S
S3711      H3714   1.406       .  S
S3712      H3713   1.407       .  S
C3717      C3718   1.410       .  A
C3717      C3722   1.421       .  A
C3718      C3719   1.398       .  A
C3718      H3727   1.082       .  S
C3719      C3720   1.415       .  A
C3719      S3723   1.811       .  S
C3720      C3721   1.402       .  A
C3721      C3722   1.402       .  A
C3721      H3728   1.084       .  S
C3722      S3724   1.805       .  S
S3723      H3726   1.401       .  S
S3724      H3725   1.406       .  S
C3729      C3730   1.700       .  A
C3729      C3734   1.728       .  A
C3730      C3731   1.665       .  A
C3730      H3739   1.077       .  S
C3731      C3732   1.691       .  A
C3731      S3735   1.791       .  S
C3732      C3733   1.709       .  A
C3733      C3734   1.699       .  A
C3733      H3740   1.082       .  S
C3734      S3736   1.804       .  S
S3735      H3738   1.403       .  S
S3736      H3737   1.391       .  S
C3741      C3742   1.407       .  A
C3741      C3746   1.416       .  A
C3742      C3743   1.399       .  A
C3742      H3751   1.083       .  S
C3743      C3744   1.414       .  A
C3743      S3747   1.805       .  S
C3744      C3745   1.403       .  A
C3745      C3746   1.397       .  A
C3745      H3752   1.083       .  S
C3746      S3748   1.802       .  S
S3747      H3750   1.407       .  S
S3748      H3749   1.406       .  S
C3753      C3754   1.411       .  A
C3753      C3758   1.412       .  A
C3754      C3755   1.404       .  A
C3754      H3763   1.083       .  S
C3755      C3756   1.414       .  A
C3755      S3759   1.804       .  S
C3756      C3757   1.404       .  A
C3757      C3758   1.392       .  A
C3757      H3764   1.084       .  S
C3758      S3760   1.797       .  S
S3759      H3762   1.406       .  S
S3760      H3761   1.406       .  S
C3765      C3766   1.410       .  A
C3765      C3770   1.417       .  A
C3766      C3767   1.404       .  A
C3766      H3775   1.083       .  S
C3767      C3768   1.419       .  A
C3767      S3771   1.804       .  S
C3768      C3769   1.409       .  A
C3769      C3770   1.402       .  A
C3769      H3776   1.082       .  S
C3770      S3772   1.804       .  S
S3771      H3774   1.406       .  S
S3772      H3773   1.407       .  S
C3777      C3778   1.407       .  A
C3777      C3782   1.413       .  A
C3778      C3779   1.402       .  A
C3778      H3787   1.083       .  S
C3779      C3780   1.409       .  A
C3779      S3783   1.805       .  S
C3780      C3781   1.410       .  A
C3781      C3782   1.409       .  A
C3781      H3788   1.084       .  S
C3782      S3784   1.802       .  S
S3783      H3786   1.406       .  S
S3784      H3785   1.406       .  S
C3789      C3790   1.404       .  A
C3789      C3794   1.428       .  A
C3790      C3791   1.403       .  A
C3790      H3799   1.084       .  S
C3791      C3792   1.415       .  A
C3791      S3795   1.798       .  S
C3792      C3793   1.396       .  A
C3793      C3794   1.396       .  A
C3793      H3800   1.085       .  S
C3794      S3796   1.806       .  S
S3796      H3797   1.408       .  S
C3801      C3802   1.401       .  A
C3801      C3806   1.417       .  A
C3802      C3803   1.398       .  A
C3802      H3811   1.084       .  S
C3803      C3804   1.421       .  A
C3803      S3807   1.805       .  S
C3804      C3805   1.408       .  A
C3805      C3806   1.409       .  A
C3805      H3812   1.084       .  S
C3806      S3808   1.802       .  S
S3807      H3810   1.408       .  S
S3808      H3809   1.405       .  S
C3813      C3814   1.401       .  A
C3813      C3818   1.414       .  A
C3814      C3815   1.405       .  A
C3814      H3823   1.084       .  S
C3815      C3816   1.422       .  A
C3815      S3819   1.806       .  S
C3816      C3817   1.406       .  A
C3817      C3818   1.405       .  A
C3817      H3824   1.079       .  S
C3818      S3820   1.803       .  S
S3819      H3822   1.405       .  S
S3820      H3821   1.407       .  S
C3825      C3826   1.403       .  A
C3825      C3830   1.413       .  A
C3826      C3827   1.401       .  A
C3826      H3835   1.084       .  S
C3827      C3828   1.416       .  A
C3827      S3831   1.800       .  S
C3828      C3829   1.406       .  A
C3829      C3830   1.397       .  A
C3829      H3836   1.084       .  S
C3830      S3832   1.801       .  S
S3831      H3834   1.407       .  S
S3832      H3833   1.404       .  S
C3837      C3838   1.403       .  A
C3837      C3842   1.407       .  A
C3838      C3839   1.400       .  A
C3838      H3847   1.084       .  S
C3839      C3840   1.414       .  A
C3839      S3843   1.799       .  S
C3840      C3841   1.409       .  A
C3841      C3842   1.398       .  A
C3841      H3848   1.084       .  S
C3842      S3844   1.804       .  S
S3843      H3846   1.406       .  S
S3844      H3845   1.407       .  S
C3849      C3850   1.402       .  A
C3849      C3854   1.411       .  A
C3850      C3851   1.399       .  A
C3850      H3859   1.084       .  S
C3851      C3852   1.416       .  A
C3851      S3855   1.809       .  S
C3852      C3853   1.404       .  A
C3853      C3854   1.400       .  A
C3853      H3860   1.081       .  S
C3854      S3856   1.799       .  S
S3855      H3858   1.398       .  S
S3856      H3857   1.405   1_556  S
C3861      C3862   1.399       .  A
C3861      C3866   1.416       .  A
C3862      C3863   1.403       .  A
C3862      H3871   1.084       .  S
C3863      C3864   1.424       .  A
C3863      S3867   1.803   1_554  S
C3864      C3865   1.403       .  A
C3865      C3866   1.405       .  A
C3865      H3872   1.082       .  S
C3866      S3868   1.809       .  S
S3867      H3870   1.402       .  S
S3868      H3869   1.406       .  S
C3873      C3874   1.403       .  A
C3873      C3878   1.419       .  A
C3874      C3875   1.394       .  A
C3874      H3883   1.084       .  S
C3875      C3876   1.414       .  A
C3875      S3879   1.800       .  S
C3876      C3877   1.407       .  A
C3877      C3878   1.412       .  A
C3877      H3884   1.083       .  S
C3878      S3880   1.802       .  S
S3879      H3882   1.401       .  S
S3880      H3881   1.407       .  S
C3885      C3886   1.403       .  A
C3885      C3890   1.414       .  A
C3886      C3887   1.404       .  A
C3886      H3895   1.084       .  S
C3887      C3888   1.415       .  A
C3888      C3889   1.400       .  A
C3889      C3890   1.399       .  A
C3889      H3896   1.081       .  S
C3890      S3892   1.809       .  S
S3891      H3894   1.403       .  S
S3892      H3893   1.407       .  S
C3897      C3898   1.412       .  A
C3897      C3902   1.418       .  A
C3898      C3899   1.394       .  A
C3898      H3907   1.083       .  S
C3899      C3900   1.408       .  A
C3899      S3903   1.806       .  S
C3900      C3901   1.406       .  A
C3901      C3902   1.405       .  A
C3901      H3908   1.084       .  S
C3902      S3904   1.801       .  S
S3904      H3905   1.407       .  S
C3909      C3910   1.404       .  A
C3909      C3914   1.429       .  A
C3910      C3911   1.404       .  A
C3910      H3919   1.084       .  S
C3911      C3912   1.417       .  A
C3911      S3915   1.805       .  S
C3912      C3913   1.396       .  A
C3913      C3914   1.405       .  A
C3913      H3920   1.083       .  S
C3914      S3916   1.811       .  S
S3915      H3918   1.402       .  S
S3916      H3917   1.407       .  S
