geometry optimzed in LAMMPS
_audit_creation_date              2020-11-30 
_audit_creation_method            'lammps2cif' 
_symmetry_space_group_name_H-M    'P1' 
_symmetry_Int_Tables_number       1 
_symmetry_cell_setting            triclinic 
loop_ 
_symmetry_equiv_pos_as_xyz 
  x,y,z 
_cell_length_a                    33.25400188 
_cell_length_b                    33.42505302973473 
_cell_length_c                    34.76578203952167 
_cell_angle_alpha                 89.88518842192758 
_cell_angle_beta                  89.73882849246549 
_cell_angle_gamma                 90.39268605705236 
loop_ 
_atom_site_label 
_atom_site_type_symbol 
_atom_site_fract_x 
_atom_site_fract_y 
_atom_site_fract_z 
_atom_site_charge 
C1          C  0.86390896  0.35749149  0.03794682     0.30800
C2          C  0.86284432  0.35931068  0.45859266     0.30800
C3          C  0.82361496  0.36787898  0.01918100    -0.05400
C4          C  0.89333779  0.38720361  0.01833073    -0.06200
C5          C  0.87534503  0.31834807  0.01731723    -0.06100
C6          C  0.82307243  0.36941701  0.47917684    -0.05400
C7          C  0.89181262  0.38899979  0.47815141    -0.06200
C8          C  0.87447605  0.31948822  0.47717437    -0.06100
C9          C  0.78573077  0.38329360  0.46892081    -0.31500
N10         N  0.76306386  0.38841181  0.00118484     0.15000
C11         C  0.78612149  0.37881456  0.03207396    -0.31500
H12         H  0.77667557  0.37942838  0.06183525     0.17000
C13         C  0.91810349  0.41868085  0.46664378    -0.30500
N14         N  0.93741440  0.43290331  0.49809357     0.13700
C15         C  0.92291663  0.41363419  0.02966803    -0.30400
C16         C  0.88734400  0.28307011  0.46391122    -0.30700
N17         N  0.89603956  0.25981083  0.99471134     0.14300
H18         H  0.89022545  0.27411282  0.43412413     0.16900
C19         C  0.88976024  0.28121458  0.02731466    -0.30700
H20         H  0.89647099  0.27063803  0.05597817     0.16900
H21         H  0.93362447  0.41835215  0.05863872     0.16900
H22         H  0.77615385  0.39069596  0.44010652     0.17000
H23         H  0.92224154  0.42991753  0.43770979     0.16900
C24         C  0.86006035  0.35576406  0.20881791     0.30800
C25         C  0.85860027  0.35784353  0.28816396     0.30800
C26         C  0.87195356  0.31692228  0.22971713    -0.05400
C27         C  0.88900501  0.38599547  0.22801306    -0.12600
C28         C  0.81959140  0.36610941  0.22766645    -0.06100
C29         C  0.87039369  0.31797464  0.26982432    -0.05400
C30         C  0.88774750  0.38751742  0.26816629    -0.06200
C31         C  0.81890914  0.36788737  0.26777370    -0.06100
C32         C  0.88573548  0.28255371  0.28329497    -0.31500
N33         N  0.89755686  0.26043818  0.25266634     0.15000
C34         C  0.89012967  0.28141049  0.22000796    -0.31500
H35         H  0.89810356  0.27164486  0.19135756     0.17000
C36         C  0.91533896  0.41609140  0.27940051    -0.30500
N37         N  0.93459433  0.43044587  0.24769173     0.13700
C38         C  0.91875918  0.41230810  0.21622140    -0.30400
C39         C  0.78194285  0.38286631  0.27808640    -0.30700
N40         N  0.75949277  0.38765411  0.24592412     0.14300
H41         H  0.77257193  0.39157910  0.30666142     0.16900
C42         C  0.78248316  0.37815504  0.21487650    -0.30700
H43         H  0.77313889  0.38045463  0.18517646     0.16900
H44         H  0.92906305  0.41722105  0.18701919     0.16900
H45         H  0.88959697  0.27414657  0.31313168     0.17000
H46         H  0.92084929  0.42607768  0.30846562     0.16900
C47         C  0.62306679  0.86108759  0.46058421     0.30800
C48         C  0.62085379  0.86228501  0.03999777     0.30800
C49         C  0.66285636  0.87237621  0.48081354    -0.05400
C50         C  0.59308711  0.88969534  0.47924906    -0.06200
C51         C  0.61342663  0.82094031  0.48056464    -0.06100
C52         C  0.66178660  0.87252740  0.02108669    -0.05400
C53         C  0.59212609  0.89051581  0.01922321    -0.06200
C54         C  0.61167420  0.82154906  0.02082459    -0.06100
C55         C  0.70052121  0.87947604  0.03340286    -0.31500
N56         N  0.72457457  0.88543676  0.50222451     0.15000
C57         C  0.70214771  0.88000936  0.47006720    -0.31500
H58         H  0.71381491  0.88164976  0.44102618     0.17000
C59         C  0.56466652  0.91904253  0.02985500    -0.30500
N60         N  0.54878736  0.93516512  0.49742790     0.13700
C61         C  0.56611056  0.91756146  0.46638261    -0.30400
C62         C  0.60484601  0.78263063  0.03261207    -0.30700
N63         N  0.60218143  0.75902582  0.50103283     0.14300
H64         H  0.60238957  0.77171644  0.06182894     0.16900
C65         C  0.60881743  0.78169499  0.46931821    -0.30700
H66         H  0.60977680  0.77021467  0.44028216     0.16900
H67         H  0.56026986  0.92519288  0.43666802     0.16900
H68         H  0.71075943  0.87934397  0.06286983     0.17000
H69         H  0.55682025  0.92750554  0.05896273     0.16900
C70         C  0.61938709  0.86246219  0.21036841     0.30800
C71         C  0.62241165  0.86243171  0.28969176     0.30800
C72         C  0.65911587  0.87728755  0.22836170    -0.05400
C73         C  0.58787989  0.88757855  0.23124852    -0.06200
C74         C  0.61474016  0.82117971  0.23020641    -0.06100
C75         C  0.66081681  0.87664176  0.26852710    -0.05400
C76         C  0.58923330  0.88760142  0.27121551    -0.06200
C77         C  0.61605967  0.82135821  0.27047325    -0.06100
C78         C  0.70083533  0.88009982  0.27805485    -0.31500
N79         N  0.72298478  0.88626965  0.24564717     0.15000
C80         C  0.69789906  0.88328642  0.21508423    -0.31500
H81         H  0.70713047  0.88501958  0.18533406     0.17000
C82         C  0.55955135  0.91307077  0.28389679    -0.30500
N83         N  0.54064079  0.92849315  0.25265497     0.13700
C84         C  0.55781706  0.91309326  0.22044680    -0.30400
C85         C  0.61135775  0.78241156  0.28256940    -0.30700
N86         N  0.60612205  0.75874983  0.25126165     0.14300
H87         H  0.61106923  0.77196059  0.31202830     0.16900
C88         C  0.60960051  0.78183478  0.21920671    -0.30700
H89         H  0.60708400  0.77072819  0.19012349     0.16900
H90         H  0.54970967  0.92079148  0.19124534     0.16900
H91         H  0.71336657  0.87695531  0.30652995     0.17000
H92         H  0.55347833  0.92123671  0.31346015     0.16900
O93         O  0.91292751  0.93243610  0.47448356    -0.77700
C94         C  0.99030959  0.98906530  0.38889429     0.83300
O95         O  0.04830391  0.91273726  0.01652318    -0.78800
O96         O  0.07138597  0.04787627  0.47052175    -0.80300
O97         O  0.93294862  0.07144418  0.01164236    -0.80100
O98         O  0.89366788  0.97863337  0.01629210    -0.78800
Zn99       Zn  0.97112730  0.94552926  0.46287100     1.55700
O100        O  0.98052052  0.08789179  0.46942789    -0.80100
Cd101      Cd  0.94516318  0.01215138  0.02352836     1.59700
Cd102      Cd  0.03571249  0.97219619  0.02507757     1.59600
O103        O  0.95957028  0.00844598  0.08018155    -0.80100
O104        O  0.99053218  0.99064329  0.49259550    -1.90600
Cd105      Cd  0.01148430  0.03552667  0.46077118     1.59900
O106        O  0.01969952  0.97860728  0.08105237    -0.80100
O107        O  0.00495780  0.01998711  0.40486397    -0.78800
C108        C  0.03226203  0.88654563  0.49483281     0.83800
C109        C  0.88616107  0.94774014  0.49612486     0.83400
O110        O  0.97630494  0.95916203  0.40735709    -0.77700
C111        C  0.95034850  0.09717902  0.49008699     0.84300
O112        O  0.00299644  0.89536475  0.47297113    -0.77800
C113        C  0.98942495  0.99376154  0.09776931     0.84400
C114        C  0.09709304  0.03337950  0.49358203     0.84700
O115        O  0.08797287  0.00467187  0.01619322    -0.80200
O116        O  0.91126053  0.93424550  0.22044277    -0.77700
C117        C  0.98909229  0.99411925  0.13889120     0.83300
O118        O  0.04714214  0.91097827  0.26330951    -0.78800
O119        O  0.07059596  0.04831084  0.22036956    -0.80300
O120        O  0.93486514  0.07096401  0.26860589    -0.80100
O121        O  0.89271067  0.97901070  0.26398123    -0.78800
Zn122      Zn  0.97025789  0.94682664  0.21093242     1.55700
O123        O  0.98128859  0.08970683  0.22611809    -0.80100
Cd124      Cd  0.94487908  0.01022516  0.27464293     1.59700
Cd125      Cd  0.03568048  0.97071642  0.27366499     1.59600
O126        O  0.95864988  0.00123639  0.33084934    -0.80100
O127        O  0.99001922  0.99055139  0.24242719    -1.90600
Cd128      Cd  0.01016759  0.03729564  0.21234286     1.59900
O129        O  0.02089835  0.97603060  0.33024880    -0.80100
O130        O  0.00145860  0.02548099  0.15579362    -0.78800
C131        C  0.03019621  0.88563069  0.24123649     0.83800
C132        C  0.88463666  0.94931270  0.24244046     0.83400
O133        O  0.97722985  0.96273693  0.15638358    -0.77700
C134        C  0.95246282  0.09807149  0.24886177     0.84300
O135        O  0.00097472  0.89564890  0.21979507    -0.77800
C136        C  0.98972599  0.98826536  0.34772906     0.84400
C137        C  0.09643843  0.03324469  0.24295345     0.84700
O138        O  0.08773414  0.00389103  0.26496532    -0.80200
C139        C  0.13024251  0.63016232  0.45697577     0.30800
C140        C  0.13190290  0.62963703  0.03634762     0.30800
C141        C  0.12382101  0.67059249  0.47677762    -0.05400
C142        C  0.09868151  0.60328354  0.47733389    -0.06200
C143        C  0.16937895  0.61513336  0.47576694    -0.06100
C144        C  0.12436276  0.67047979  0.01702416    -0.05400
C145        C  0.09893734  0.60377831  0.01751826    -0.06200
C146        C  0.17001858  0.61533809  0.01582597    -0.06100
C147        C  0.10733925  0.70603070  0.02852711    -0.31500
N148        N  0.09870176  0.72817405  0.49692804     0.15000
C149        C  0.10775568  0.70644264  0.46517872    -0.31500
H150        H  0.10134118  0.71527778  0.43588163     0.17000
C151        C  0.06966834  0.57732896  0.02985679    -0.30500
N152        N  0.05296462  0.55951370  0.49866459     0.13700
C153        C  0.07086648  0.57474283  0.46661704    -0.30400
C154        C  0.20681249  0.60136665  0.02725769    -0.30700
N155        N  0.22902135  0.59274153  0.49545298     0.14300
H156        H  0.21619856  0.59713590  0.05671034     0.16900
C157        C  0.20596058  0.60009906  0.46396961    -0.30700
H158        H  0.21527917  0.59508901  0.43457242     0.16900
H159        H  0.06482715  0.56462579  0.43769399     0.16900
H160        H  0.09900547  0.71417096  0.05756563     0.17000
H161        H  0.06246576  0.57008417  0.05939622     0.16900
C162        C  0.13014197  0.62769208  0.20684517     0.30800
C163        C  0.12774743  0.62799968  0.28621144     0.30800
C164        C  0.11143601  0.66482627  0.22590878    -0.05400
C165        C  0.10504627  0.59395294  0.22610741    -0.06200
C166        C  0.17072744  0.62421582  0.22728313    -0.06100
C167        C  0.11082405  0.66500116  0.26596845    -0.05400
C168        C  0.10436511  0.59361091  0.26639557    -0.06200
C169        C  0.16960276  0.62385730  0.26741185    -0.06100
C170        C  0.09425319  0.70059281  0.27748849    -0.31500
N171        N  0.08484076  0.72228962  0.24568680     0.15000
C172        C  0.09407126  0.70011602  0.21415111    -0.31500
H173        H  0.08926224  0.70950116  0.18477604     0.17000
C174        C  0.07801489  0.56355059  0.27736702    -0.30500
N175        N  0.06106345  0.54731706  0.24539845     0.13700
C176        C  0.07744128  0.56570049  0.21411133    -0.30400
C177        C  0.20608743  0.60898132  0.27936151    -0.30700
N178        N  0.22983919  0.60277453  0.24819133     0.14300
H179        H  0.21378571  0.60016437  0.30835100     0.16900
C180        C  0.20818137  0.61113660  0.21617622    -0.30700
H181        H  0.21807342  0.60587289  0.18693029     0.16900
H182        H  0.06895335  0.55977068  0.18474167     0.16900
H183        H  0.08945674  0.70987530  0.30693184     0.17000
H184        H  0.07027676  0.55516747  0.30650766     0.16900
C185        C  0.35790431  0.13114993  0.03546449     0.30800
C186        C  0.35729639  0.13168318  0.45603892     0.30800
C187        C  0.36592838  0.17159702  0.01603486    -0.05400
C188        C  0.38858367  0.10390519  0.01535602    -0.06200
C189        C  0.31860479  0.11705119  0.01626644    -0.06100
C190        C  0.36514107  0.17234547  0.47585221    -0.05400
C191        C  0.38841797  0.10440665  0.47519775    -0.06200
C192        C  0.31779524  0.11876044  0.47610248    -0.06100
C193        C  0.37382371  0.21124349  0.46501150    -0.31500
N194        N  0.38153612  0.23293815  0.49710323     0.15000
C195        C  0.37687568  0.20909992  0.02839845    -0.31500
H196        H  0.38254479  0.21807423  0.05779321     0.17000
C197        C  0.41602048  0.07660854  0.46291531    -0.30500
N198        N  0.43270228  0.05934020  0.49439294     0.13700
C199        C  0.41547499  0.07501447  0.02633990    -0.30400
C200        C  0.27971923  0.10731532  0.46508244    -0.30700
N201        N  0.25869610  0.09570705  0.49674664     0.14300
H202        H  0.26798999  0.10704993  0.43614342     0.16900
C203        C  0.28224222  0.10119052  0.02809951    -0.30700
H204        H  0.27341051  0.09423272  0.05732570     0.16900
H205        H  0.42107436  0.06464216  0.05529560     0.16900
H206        H  0.37616891  0.22293606  0.43606711     0.17000
H207        H  0.42309355  0.06913238  0.43338210     0.16900
C208        C  0.35621892  0.13323556  0.28529075     0.30800
C209        C  0.35860542  0.13094358  0.20602568     0.30800
C210        C  0.36429758  0.17322738  0.26457498    -0.05400
C211        C  0.38722975  0.10501714  0.26721875    -0.06200
C212        C  0.31691491  0.12011544  0.26519898    -0.06100
C213        C  0.36641479  0.17183787  0.22458165    -0.05400
C214        C  0.38810050  0.10334650  0.22712679    -0.06200
C215        C  0.31852026  0.11808685  0.22509261    -0.06100
C216        C  0.37451922  0.21008740  0.21169413    -0.31500
N217        N  0.37637940  0.23472437  0.24269494     0.15000
C218        C  0.36861270  0.21268243  0.27475490    -0.31500
H219        H  0.36677496  0.22475441  0.30352628     0.17000
C220        C  0.41120753  0.07081671  0.21752862    -0.30500
N221        N  0.42630954  0.05452785  0.25014534     0.13700
C222        C  0.41115219  0.07458744  0.28077827    -0.30400
C223        C  0.28203689  0.10333151  0.21296365    -0.30700
N224        N  0.25724815  0.09875928  0.24393796     0.14300
H225        H  0.27495385  0.09504534  0.18376152     0.16900
C226        C  0.27840267  0.10930265  0.27589017    -0.30700
H227        H  0.26657860  0.10950893  0.30489595     0.16900
H228        H  0.41652501  0.06711194  0.31061676     0.16900
H229        H  0.38030844  0.21888456  0.18220276     0.17000
H230        H  0.41554068  0.05861134  0.18904219     0.16900
O231        O  0.46783821  0.47972674  0.40947742    -0.77700
C232        C  0.45350870  0.38922696  0.49611009     0.83300
O233        O  0.41802134  0.55222715  0.01498830    -0.78800
O234        O  0.50672680  0.46430838  0.08412657    -0.80300
O235        O  0.59456696  0.47561069  0.47330912    -0.80100
O236        O  0.52965478  0.50677059  0.40775232    -0.78800
Zn237      Zn  0.45249569  0.47399120  0.46411233     1.55700
O238        O  0.57540834  0.43546692  0.02140342    -0.80100
Cd239      Cd  0.54463322  0.51113086  0.46424896     1.59700
Cd240      Cd  0.47755589  0.53925117  0.02518858     1.59600
O241        O  0.56019472  0.57042233  0.47509469    -0.80100
O242        O  0.49702955  0.49290661  0.49492628    -1.90600
Cd243      Cd  0.51516806  0.44838660  0.02836902     1.59900
O244        O  0.51127785  0.58974449  0.01447906    -0.80100
O245        O  0.48272679  0.39677554  0.01852758    -0.78800
C246        C  0.39227410  0.53552275  0.49320335     0.83800
C247        C  0.49829127  0.49327042  0.39141162     0.83400
O248        O  0.43919476  0.41602660  0.47410122    -0.77700
C249        C  0.60184159  0.44815936  0.49770797     0.84300
O250        O  0.40167353  0.50562518  0.47248515    -0.77800
C251        C  0.54301473  0.59733890  0.49510103     0.84400
C252        C  0.49421529  0.49588880  0.10034260     0.84700
O253        O  0.48253399  0.52666881  0.08222443    -0.80200
O254        O  0.39909954  0.51022020  0.22567643    -0.77700
C255        C  0.49415062  0.49689951  0.14147830     0.83300
O256        O  0.47650135  0.39871317  0.26591196    -0.78800
O257        O  0.59067704  0.47922166  0.22333002    -0.80300
O258        O  0.51069017  0.59138760  0.26745017    -0.80100
O259        O  0.41617957  0.55368644  0.27092696    -0.78800
Zn260      Zn  0.44834366  0.47788161  0.21424344     1.55700
O261        O  0.55668827  0.57206519  0.22505358    -0.80100
Cd262      Cd  0.47655589  0.54050081  0.27774630     1.59700
Cd263      Cd  0.51196803  0.44812366  0.27586735     1.59600
O264        O  0.48534210  0.52531205  0.33371526    -0.80100
O265        O  0.49362643  0.49473836  0.24520813    -1.90600
Cd266      Cd  0.54052979  0.51346359  0.21441741     1.59900
O267        O  0.50718367  0.46201531  0.33258169    -0.80100
O268        O  0.52596929  0.50873455  0.15810009    -0.78800
C269        C  0.44648683  0.39242061  0.24411661     0.83800
C270        C  0.39001066  0.53848352  0.24850958     0.83400
O271        O  0.46283438  0.48498076  0.15928878    -0.77700
C272        C  0.54155514  0.59873581  0.24665568     0.84300
O273        O  0.43292273  0.41987520  0.22242240    -0.77800
C274        C  0.49696143  0.49356450  0.35029081     0.84400
C275        C  0.59824687  0.44881323  0.24402383     0.84700
O276        O  0.57139093  0.43300875  0.26556627    -0.80200
C277        C  0.39189449  0.27501462  0.24316603    -0.04700
C278        C  0.41824531  0.28630629  0.27264109    -0.32100
C279        C  0.43546887  0.32435422  0.27359392     0.37100
C280        C  0.42706471  0.35229715  0.24426700    -0.05100
C281        C  0.39996214  0.34134701  0.21500159    -0.32000
C282        C  0.38236856  0.30305242  0.21435887     0.37000
H283        H  0.42627392  0.26513152  0.29487359     0.17400
O284        O  0.46080221  0.33359186  0.30336257    -0.59500
H285        H  0.39264568  0.36233635  0.19234659     0.17400
O286        O  0.35593431  0.29346527  0.18560690    -0.59600
H287        H  0.32883559  0.29718564  0.19700094     0.44400
H288        H  0.44321402  0.34464696  0.32377315     0.44400
C289        C  0.35842770  0.13028879  0.41170948    -0.04700
C290        C  0.38524727  0.15504330  0.39107092    -0.32100
C291        C  0.38565549  0.15590847  0.35058408     0.37100
C292        C  0.35747154  0.13279446  0.32956451    -0.05100
C293        C  0.33724348  0.10229519  0.35000107    -0.32000
C294        C  0.33862493  0.10000547  0.39044538     0.37000
H295        H  0.40775397  0.17226233  0.40620624     0.17400
O296        O  0.41657300  0.17555891  0.33196608    -0.59500
H297        H  0.32213529  0.07857909  0.33451405     0.17400
O298        O  0.32507808  0.06581989  0.40854179    -0.59600
H299        H  0.29866739  0.05892204  0.39706101     0.44400
H300        H  0.41860397  0.20254935  0.34366376     0.44400
C301        C  0.35847787  0.13312817  0.07970582    -0.04700
C302        C  0.39460282  0.12766190  0.09993680    -0.32100
C303        C  0.39566312  0.12754034  0.14039264     0.37100
C304        C  0.35974836  0.13229993  0.16180119    -0.05100
C305        C  0.32591887  0.14600687  0.14157901    -0.32000
C306        C  0.32518186  0.14707848  0.10113294     0.37000
H307        H  0.42277025  0.12540933  0.08451479     0.17400
O308        O  0.43230361  0.12724890  0.15851326    -0.59500
H309        H  0.30012346  0.15720252  0.15717251     0.17400
O310        O  0.29352531  0.16521381  0.08290304    -0.59600
H311        H  0.26858335  0.15354003  0.09411364     0.44400
H312        H  0.44766525  0.10470227  0.14732560     0.44400
C313        C  0.43540967  0.34858676  0.49596904    -0.04700
C314        C  0.39672927  0.34265679  0.48059051    -0.32100
C315        C  0.37859632  0.30474453  0.48111093     0.37100
C316        C  0.39894055  0.27220630  0.49731523    -0.05100
C317        C  0.43747524  0.27782590  0.01247240    -0.32000
C318        C  0.45601674  0.31544698  0.01143037     0.37000
H319        H  0.38027197  0.36751057  0.46848614     0.17400
O320        O  0.34089211  0.29974734  0.46599833    -0.59500
H321        H  0.45357211  0.25259016  0.02428914     0.17400
O322        O  0.49448794  0.31921408  0.02507618    -0.59600
H323        H  0.51214231  0.31506202  0.00234187     0.44400
H324        H  0.32223803  0.30206727  0.48819380     0.44400
C325        C  0.26965376  0.58619665  0.24898147    -0.04700
C326        C  0.28090028  0.55770120  0.22155225    -0.32100
C327        C  0.31945983  0.54132084  0.22151895     0.37100
C328        C  0.34820418  0.55404014  0.24885224    -0.05100
C329        C  0.33665703  0.58231193  0.27665799    -0.32000
C330        C  0.29784132  0.59827627  0.27690497     0.37000
H331        H  0.25944558  0.54763461  0.20026656     0.17400
O332        O  0.32875137  0.51343350  0.19405844    -0.59500
H333        H  0.35782679  0.59237744  0.29822805     0.17400
O334        O  0.28805835  0.62622040  0.30416072    -0.59600
H335        H  0.29194029  0.65248804  0.29132088     0.44400
H336        H  0.31937350  0.48749230  0.20486556     0.44400
C337        C  0.12882818  0.63247700  0.41267542    -0.04700
C338        C  0.09242914  0.62671945  0.39265679    -0.32100
C339        C  0.09111060  0.62603485  0.35211989     0.37100
C340        C  0.12683554  0.63110931  0.33049690    -0.05100
C341        C  0.16069810  0.64569222  0.35050918    -0.32000
C342        C  0.16189169  0.64671380  0.39092809     0.37000
H343        H  0.06433676  0.62449754  0.40823094     0.17400
O344        O  0.05452256  0.62424943  0.33392080    -0.59500
H345        H  0.18612486  0.65800795  0.33494740     0.17400
O346        O  0.19383703  0.66503228  0.40886075    -0.59600
H347        H  0.21861753  0.65384770  0.39720621     0.44400
H348        H  0.03902176  0.60222242  0.34629111     0.44400
C349        C  0.13490437  0.62827875  0.08053921    -0.04700
C350        C  0.14590789  0.66254083  0.10161059    -0.32100
C351        C  0.14624637  0.66238762  0.14211925     0.37100
C352        C  0.13381165  0.62784468  0.16263615    -0.05100
C353        C  0.13104376  0.59198327  0.14156410    -0.32000
C354        C  0.13236864  0.59187694  0.10120211     0.37000
H355        H  0.15601079  0.68927869  0.08685180     0.17400
O356        O  0.16201415  0.69474768  0.16137397    -0.59500
H357        H  0.12967132  0.56348728  0.15621542     0.17400
O358        O  0.13240607  0.55583506  0.08242556    -0.59600
H359        H  0.16085541  0.54717442  0.08224314     0.44400
H360        H  0.14952215  0.71895710  0.15014376     0.44400
C361        C  0.35044790  0.55085324  0.49269805    -0.04700
C362        C  0.33732257  0.57609084  0.52241454    -0.32100
C363        C  0.29787844  0.59032702  0.52348824     0.37100
C364        C  0.27007931  0.57877673  0.49488121    -0.05100
C365        C  0.28340985  0.55401527  0.46484047    -0.32000
C366        C  0.32313711  0.54045757  0.46334159     0.37000
H367        H  0.35771481  0.58493680  0.54512936     0.17400
O368        O  0.28726892  0.61613807  0.55233239    -0.59500
H369        H  0.26288493  0.54480183  0.44242508     0.17400
O370        O  0.33481559  0.51713906  0.43291687    -0.59600
H371        H  0.34487255  0.53624628  0.91316777     0.44400
H372        H  0.29324569  0.64323547  0.54206569     0.44400
C373        C  0.13752868  0.05053262  0.24363963    -0.04700
C374        C  0.15295117  0.06984722  0.21081811    -0.32100
C375        C  0.19167599  0.08650506  0.21061081     0.37100
C376        C  0.21639289  0.08341290  0.24355537    -0.05100
C377        C  0.20033238  0.06479215  0.27663444    -0.32000
C378        C  0.16137392  0.04875561  0.27694892     0.37000
H379        H  0.13488852  0.07207254  0.18504371     0.17400
O380        O  0.20445816  0.10619397  0.17812437    -0.59500
H381        H  0.21808634  0.06203707  0.30246815     0.17400
O382        O  0.14634350  0.03287683  0.31052186    -0.59600
H383        H  0.15729966  0.00541092  0.31190142     0.44400
H384        H  0.19935716  0.13489593  0.18317513     0.44400
C385        C  0.04436919  0.84349643  0.24138190    -0.04700
C386        C  0.07063715  0.83081835  0.27045973    -0.32100
C387        C  0.08402793  0.79130176  0.27217713     0.37100
C388        C  0.07058599  0.76298172  0.24499482    -0.05100
C389        C  0.04462951  0.77562414  0.21566609    -0.32000
C390        C  0.03182479  0.81542856  0.21346791     0.37000
H391        H  0.08113861  0.85166512  0.29207773     0.17400
O392        O  0.11119005  0.78111749  0.30000967    -0.59500
H393        H  0.03418877  0.75452652  0.19427010     0.17400
O394        O  0.00716429  0.82641608  0.18380737    -0.59600
H395        H  0.02557409  0.83374978  0.16235282     0.44400
H396        H  0.13798857  0.78514893  0.28792492     0.44400
C397        C  0.13858867  0.05014067  0.49431065    -0.04700
C398        C  0.16739469  0.03292561  0.01870318    -0.32100
C399        C  0.20682902  0.04765092  0.01985800     0.37100
C400        C  0.21820184  0.08037832  0.49659839    -0.05100
C401        C  0.18964103  0.09761895  0.47222010    -0.32000
C402        C  0.15014606  0.08309289  0.47110053     0.37000
H403        H  0.15956412  0.00759218  0.03678575     0.17400
O404        O  0.23422280  0.02916869  0.04315302    -0.59500
H405        H  0.19791072  0.12290769  0.45426494     0.17400
O406        O  0.12334732  0.10131457  0.44697599    -0.59600
H407        H  0.11136734  0.12320725  0.46239614     0.44400
H408        H  0.24682828  0.00838859  0.02685175     0.44400
C409        C  0.04822831  0.84511375  0.49538248    -0.04700
C410        C  0.07935252  0.83553026  0.02103021    -0.32100
C411        C  0.09551360  0.79705799  0.02221855     0.37100
C412        C  0.08110486  0.76731269  0.49716826    -0.05100
C413        C  0.04990601  0.77650825  0.47170548    -0.32000
C414        C  0.03332475  0.81489991  0.47073946     0.37000
H415        H  0.09155153  0.85796197  0.04024832     0.17400
O416        O  0.12690592  0.78935823  0.04654366    -0.59500
H417        H  0.03821584  0.75370289  0.45261515     0.17400
O418        O  0.00241349  0.82227707  0.44578542    -0.59600
H419        H  0.01559797  0.82958784  0.42108867     0.44400
H420        H  0.11461861  0.78671204  0.07245832     0.44400
C421        C  0.45501128  0.02260974  0.25140822    -0.04700
C422        C  0.45002971  0.99048588  0.27716778    -0.32100
C423        C  0.47788966  0.95909814  0.27783107     0.37100
C424        C  0.51143273  0.95999458  0.25287864    -0.05100
C425        C  0.51639611  0.99232832  0.22754059    -0.32000
C426        C  0.48875525  0.02347711  0.22683539     0.37000
H427        H  0.42413324  0.98943786  0.29616066     0.17400
O428        O  0.47166139  0.92738741  0.30227100    -0.59500
H429        H  0.54233336  0.99373347  0.20862255     0.17400
O430        O  0.49541703  0.05516774  0.20248004    -0.59600
H431        H  0.50986489  0.07541294  0.21813899     0.44400
H432        H  0.45781139  0.90679392  0.28659766     0.44400
C433        C  0.59242298  0.71778884  0.25177724    -0.04700
C434        C  0.60638214  0.69066348  0.22407279    -0.32100
C435        C  0.59081674  0.65160810  0.22225527     0.37100
C436        C  0.56018051  0.63925556  0.24813895    -0.05100
C437        C  0.54676643  0.66642496  0.27609022    -0.32000
C438        C  0.56237276  0.70521668  0.27793990     0.37000
H439        H  0.62927564  0.69993517  0.20359945     0.17400
O440        O  0.60489008  0.62639133  0.19425887    -0.59500
H441        H  0.52347674  0.65788996  0.29645101     0.17400
O442        O  0.54672342  0.73107980  0.30455899    -0.59600
H443        H  0.52522144  0.74570723  0.29084414     0.44400
H444        H  0.62905623  0.61373268  0.20548085     0.44400
C445        C  0.76444126  0.89943593  0.24498881    -0.04700
C446        C  0.77861525  0.92334561  0.27525031    -0.32100
C447        C  0.81735736  0.93951859  0.27474452     0.37100
C448        C  0.84347973  0.93180391  0.24358373    -0.05100
C449        C  0.82991239  0.90689439  0.21368540    -0.32000
C450        C  0.79067202  0.89098276  0.21402057     0.37000
H451        H  0.75911161  0.93065045  0.29919839     0.17400
O452        O  0.82954686  0.96216233  0.30548452    -0.59500
H453        H  0.84956282  0.90006998  0.18967170     0.17400
O454        O  0.77890435  0.86614490  0.18473979    -0.59600
H455        H  0.77650991  0.88359923  0.16175055     0.44400
H456        H  0.81859198  0.98923836  0.30068750     0.44400
C457        C  0.51956036  0.96656320  0.49622327    -0.04700
C458        C  0.52319312  0.99931712  0.02113434    -0.32100
C459        C  0.49517483  0.03025598  0.02027202     0.37100
C460        C  0.46265075  0.02860053  0.49442869    -0.05100
C461        C  0.45912748  0.99597700  0.46936030    -0.32000
C462        C  0.48706912  0.96490586  0.47037045     0.37000
H463        H  0.54819706  0.00112562  0.04092738     0.17400
O464        O  0.50006949  0.06221361  0.04452425    -0.59500
H465        H  0.43398431  0.99411041  0.44974149     0.17400
O466        O  0.48173047  0.93252665  0.44674475    -0.59600
H467        H  0.46878680  0.91176095  0.46312122     0.44400
H468        H  0.51330898  0.08328028  0.02871482     0.44400
C469        C  0.62185280  0.86198875  0.41627555    -0.04700
C470        C  0.64478888  0.89048863  0.39581391    -0.32100
C471        C  0.64453613  0.89219361  0.35534164     0.37100
C472        C  0.62204950  0.86381562  0.33402292    -0.05100
C473        C  0.59356185  0.84085579  0.35458541    -0.32000
C474        C  0.59255134  0.84049639  0.39509713     0.37000
H475        H  0.66143359  0.91321588  0.41120079     0.17400
O476        O  0.66222265  0.92446734  0.33727817    -0.59500
H477        H  0.57085118  0.82407252  0.33916472     0.17400
O478        O  0.56051404  0.82259633  0.41361215    -0.59600
H479        H  0.55730677  0.79556998  0.40223556     0.44400
H480        H  0.68969744  0.92716410  0.34802160     0.44400
C481        C  0.61801810  0.86486957  0.08418671    -0.04700
C482        C  0.59044681  0.84069353  0.10474728    -0.32100
C483        C  0.58892605  0.84100495  0.14512229     0.37100
C484        C  0.61647210  0.86456102  0.16621445    -0.05100
C485        C  0.63704077  0.89478855  0.14564811    -0.32000
C486        C  0.63759327  0.89550476  0.10515400     0.37000
H487        H  0.56867663  0.82256829  0.08961172     0.17400
O488        O  0.55906271  0.81966755  0.16332685    -0.59500
H489        H  0.65198700  0.91877364  0.16090687     0.17400
O490        O  0.65422459  0.92791351  0.08638452    -0.59600
H491        H  0.68100039  0.93268461  0.09805295     0.44400
H492        H  0.53735770  0.83922762  0.16826474     0.44400
C493        C  0.58871771  0.71821081  0.50059765    -0.04700
C494        C  0.61046512  0.68920178  0.48040364    -0.32100
C495        C  0.59630509  0.64963133  0.47819098     0.37100
C496        C  0.55964347  0.63872688  0.49630691    -0.05100
C497        C  0.53795469  0.66830173  0.01617002    -0.32000
C498        C  0.55209112  0.70760151  0.01819820     0.37000
H499        H  0.63850919  0.69735625  0.46638818     0.17400
O500        O  0.61885445  0.62195282  0.45878962    -0.59500
H501        H  0.50949568  0.66122033  0.02994478     0.17400
O502        O  0.52927352  0.73581577  0.03656678    -0.59600
H503        H  0.51252498  0.74794942  0.01611871     0.44400
H504        H  0.61180683  0.62546296  0.43131007     0.44400
C505        C  0.76598052  0.89846945  0.50270502    -0.04700
C506        C  0.79291314  0.88480222  0.47449763    -0.32100
C507        C  0.83233069  0.89973984  0.47233004     0.37100
C508        C  0.84537868  0.92944245  0.49839034    -0.05100
C509        C  0.81862275  0.94232077  0.52716118    -0.32000
C510        C  0.77939834  0.92726014  0.52941474     0.37000
H511        H  0.78322727  0.86258594  0.45383004     0.17400
O512        O  0.85720877  0.88605274  0.44374626    -0.59500
H513        H  0.82782938  0.96475385  0.54784065     0.17400
O514        O  0.75405821  0.94212089  0.55703092    -0.59600
H515        H  0.74090272  0.96548985  0.54489056     0.44400
H516        H  0.86942924  0.86139423  0.45428762     0.44400
C517        C  0.96661673  0.45969848  0.24726940    -0.04700
C518        C  0.96748167  0.48939317  0.21873322    -0.32100
C519        C  0.99825211  0.51822392  0.21756055     0.37100
C520        C  0.02932603  0.51752800  0.24520162    -0.05100
C521        C  0.02848006  0.48755099  0.27359731    -0.32000
C522        C  0.99745652  0.45898725  0.27493187     0.37000
H523        H  0.94362839  0.49073895  0.19766395     0.17400
O524        O  0.99620853  0.54825573  0.19071848    -0.59500
H525        H  0.05225034  0.48600790  0.29471293     0.17400
O526        O  0.99861520  0.42934114  0.30223513    -0.59600
H527        H  0.99136661  0.44252840  0.32682370     0.44400
H528        H  0.00208142  0.53533592  0.16565749     0.44400
C529        C  0.93946485  0.14040212  0.25218686    -0.04700
C530        C  0.95864441  0.16989477  0.22951923    -0.32100
C531        C  0.94618375  0.20970171  0.23061430     0.37100
C532        C  0.91373273  0.22076920  0.25428262    -0.05100
C533        C  0.89571864  0.19199919  0.27827753    -0.32000
C534        C  0.90833761  0.15214604  0.27752575     0.37000
H535        H  0.98324436  0.16213923  0.21047787     0.17400
O536        O  0.96584993  0.23754319  0.20827886    -0.59500
H537        H  0.87085496  0.20025009  0.29679751     0.17400
O538        O  0.88915157  0.12488701  0.30088372    -0.59600
H539        H  0.90230925  0.12757826  0.32628645     0.44400
H540        H  0.98395504  0.25207210  0.22612287     0.44400
C541        C  0.63946093  0.43198048  0.24338457    -0.04700
C542        C  0.65109588  0.40455174  0.27188983    -0.32100
C543        C  0.69025967  0.38952394  0.27278828     0.37100
C544        C  0.71876884  0.40190447  0.24496716    -0.05100
C545        C  0.70697738  0.42847712  0.21599639    -0.32000
C546        C  0.66792849  0.44366891  0.21510529     0.37000
H547        H  0.62991629  0.39491135  0.29385340     0.17400
O548        O  0.70019791  0.36244228  0.30079742    -0.59500
H549        H  0.72842599  0.43817338  0.19432276     0.17400
O550        O  0.65787685  0.46943113  0.18598889    -0.59600
H551        H  0.66716757  0.49617248  0.19468745     0.44400
H552        H  0.69656711  0.33580023  0.28874882     0.44400
C553        C  0.02388238  0.52739013  0.49915988    -0.04700
C554        C  0.02618307  0.49697995  0.47137582    -0.32100
C555        C  0.99787131  0.46590099  0.47057937     0.37100
C556        C  0.96696277  0.46440314  0.49831681    -0.05100
C557        C  0.96485038  0.49438625  0.02638314    -0.32000
C558        C  0.99282245  0.52583451  0.02689010     0.37000
H559        H  0.05030637  0.49700700  0.45036482     0.17400
O560        O  0.00170327  0.43615169  0.44371352    -0.59500
H561        H  0.94077357  0.49388125  0.04747119     0.17400
O562        O  0.98815873  0.55601207  0.05317374    -0.59600
H563        H  0.99525223  0.54411672  0.07839405     0.44400
H564        H  0.99340725  0.44836010  0.41897961     0.44400
C565        C  0.85928290  0.35662855  0.33239336    -0.04700
C566        C  0.89615866  0.36066865  0.35180621    -0.32100
C567        C  0.89820343  0.36067443  0.39220618     0.37100
C568        C  0.86255594  0.35767765  0.41437970    -0.05100
C569        C  0.82766629  0.34497553  0.39500238    -0.32000
C570        C  0.82590384  0.34372125  0.35460983     0.37000
H571        H  0.92399978  0.36218264  0.33565201     0.17400
O572        O  0.93520700  0.35928354  0.40961339    -0.59500
H573        H  0.80204481  0.33388259  0.41112864     0.17400
O574        O  0.79356993  0.32535598  0.33739324    -0.59600
H575        H  0.76905151  0.33680780  0.34930152     0.44400
H576        H  0.95189288  0.38067426  0.39762112     0.44400
C577        C  0.86195212  0.35754166  0.08226955    -0.04700
C578        C  0.85091718  0.32251810  0.10241180    -0.32100
C579        C  0.84849423  0.32166095  0.14272966     0.37100
C580        C  0.85908132  0.35581787  0.16450220    -0.05100
C581        C  0.86243688  0.39220415  0.14427351    -0.32000
C582        C  0.86328365  0.39347271  0.10378774     0.37000
H583        H  0.84177901  0.29600229  0.08695122     0.17400
O584        O  0.83297995  0.28805003  0.16005168    -0.59500
H585        H  0.86318584  0.42018462  0.15985394     0.17400
O586        O  0.86155767  0.42995698  0.08557145    -0.59600
H587        H  0.88284028  0.44697858  0.09715729     0.44400
H588        H  0.80409700  0.29384823  0.16432629     0.44400
C589        C  0.93562033  0.13903390  0.48973298    -0.04700
C590        C  0.90487662  0.15028567  0.51537733    -0.32100
C591        C  0.89162395  0.18981415  0.51704580     0.37100
C592        C  0.90917192  0.21907170  0.49305565    -0.05100
C593        C  0.93912884  0.20797359  0.96681003    -0.32000
C594        C  0.95239643  0.16840602  0.96492339     0.37000
H595        H  0.89110154  0.12847174  0.53448140     0.17400
O596        O  0.86111612  0.19948624  0.54194557    -0.59500
H597        H  0.95265684  0.23026788  0.94805902     0.17400
O598        O  0.98221127  0.15912407  0.93912171    -0.59600
H599        H  0.96801481  0.15218504  0.91499326     0.44400
H600        H  0.83638370  0.19933602  0.52612067     0.44400
C601        C  0.64237404  0.43113327  0.49911207    -0.04700
C602        C  0.66644477  0.43820054  0.03133173    -0.32100
C603        C  0.70608473  0.42433983  0.03263085     0.37100
C604        C  0.72187066  0.40199554  0.00160695    -0.05100
C605        C  0.69690450  0.39406877  0.46982021    -0.32000
C606        C  0.65775594  0.40901596  0.46817654     0.37000
H607        H  0.65490350  0.45576943  0.05505892     0.17400
O608        O  0.72978364  0.43526094  0.06307076    -0.59500
H609        H  0.70779517  0.37636990  0.44595928     0.17400
O610        O  0.63442237  0.40109457  0.43661788    -0.59600
H611        H  0.64090939  0.42269827  0.41797747     0.44400
H612        H  0.71957951  0.41948883  0.08530297     0.44400
C613        C  0.86390850  0.35749166  0.53794679     0.30800
C614        C  0.86284413  0.35931137  0.95859262     0.30800
C615        C  0.82361420  0.36787695  0.51918055    -0.05400
C616        C  0.89333590  0.38720529  0.51833075    -0.06200
C617        C  0.87534699  0.31834877  0.51731770    -0.06100
C618        C  0.82307289  0.36941934  0.97917725    -0.05400
C619        C  0.89181414  0.38899876  0.97815144    -0.06200
C620        C  0.87447385  0.31948818  0.97717388    -0.06100
C621        C  0.78573076  0.38329489  0.96892149    -0.31500
N622        N  0.76306373  0.38841113  0.50118401     0.15000
C623        C  0.78612096  0.37881340  0.53207325    -0.31500
H624        H  0.77667524  0.37942810  0.56183456     0.17000
C625        C  0.91810595  0.41867910  0.96664401    -0.30500
N626        N  0.93741776  0.43290020  0.99809386     0.13700
C627        C  0.92291345  0.41363741  0.52966791    -0.30400
C628        C  0.88734014  0.28306989  0.96390995    -0.30700
N629        N  0.89604427  0.25981203  0.49471314     0.14300
H630        H  0.89022136  0.27411324  0.93412265     0.16900
C631        C  0.88976390  0.28121623  0.52731594    -0.30700
H632        H  0.89647477  0.27064055  0.55597971     0.16900
H633        H  0.93362094  0.41835606  0.55863861     0.16900
H634        H  0.77615310  0.39069637  0.94010722     0.17000
H635        H  0.92224370  0.42991654  0.93771023     0.16900
C636        C  0.86005807  0.35576196  0.70881752     0.30800
C637        C  0.85859919  0.35784206  0.78816362     0.30800
C638        C  0.87194895  0.31691959  0.72971676    -0.05400
C639        C  0.88900494  0.38599143  0.72801204    -0.12600
C640        C  0.81959015  0.36611003  0.72766646    -0.06100
C641        C  0.87038977  0.31797223  0.76982404    -0.05400
C642        C  0.88774817  0.38751385  0.76816525    -0.06200
C643        C  0.81890838  0.36788828  0.76777370    -0.06100
C644        C  0.88573362  0.28255216  0.78329455    -0.31500
N645        N  0.89755546  0.26043702  0.75266581     0.15000
C646        C  0.89012700  0.28140889  0.72000752    -0.31500
H647        H  0.89810191  0.27164404  0.69135715     0.17000
C648        C  0.91534105  0.41608686  0.77939860    -0.30500
N649        N  0.93459628  0.43044019  0.74768925     0.13700
C650        C  0.91875981  0.41230268  0.71621941    -0.30400
C651        C  0.78194186  0.38286672  0.77808666    -0.30700
N652        N  0.75949154  0.38765424  0.74592446     0.14300
H653        H  0.77257067  0.39157877  0.80666180     0.16900
C654        C  0.78248176  0.37815525  0.71487676    -0.30700
H655        H  0.77313697  0.38045394  0.68517681     0.16900
H656        H  0.92906263  0.41721543  0.68701683     0.16900
H657        H  0.88959692  0.27414574  0.81313122     0.17000
H658        H  0.92085197  0.42607382  0.80846340     0.16900
C659        C  0.62306945  0.86108662  0.96058390     0.30800
C660        C  0.62085027  0.86228713  0.53999792     0.30800
C661        C  0.66285935  0.87237448  0.98081303    -0.05400
C662        C  0.59309026  0.88969437  0.97924944    -0.06200
C663        C  0.61342897  0.82093915  0.98056396    -0.06100
C664        C  0.66178312  0.87252986  0.52108715    -0.05400
C665        C  0.59212248  0.89051736  0.51922278    -0.06200
C666        C  0.61167136  0.82155072  0.52082522    -0.06100
C667        C  0.70051743  0.87947957  0.53340368    -0.31500
N668        N  0.72457805  0.88543389  0.00222351     0.15000
C669        C  0.70215062  0.88000746  0.97006638    -0.31500
H670        H  0.71381730  0.88164856  0.94102521     0.17000
C671        C  0.56466341  0.91904482  0.52985388    -0.30500
N672        N  0.54878968  0.93516286  0.99742939     0.13700
C673        C  0.56611290  0.91756005  0.96638367    -0.30400
C674        C  0.60484386  0.78263222  0.53261305    -0.30700
N675        N  0.60218247  0.75902472  0.00103163     0.14300
H676        H  0.60238727  0.77171828  0.56182999     0.16900
C677        C  0.60881854  0.78169410  0.96931713    -0.30700
H678        H  0.60977712  0.77021411  0.94028094     0.16900
H679        H  0.56027140  0.92519154  0.93666924     0.16900
H680        H  0.71075540  0.87934869  0.56287073     0.17000
H681        H  0.55681719  0.92750857  0.55896141     0.16900
C682        C  0.61938792  0.86246219  0.71036791     0.30800
C683        C  0.62241338  0.86243192  0.78969121     0.30800
C684        C  0.65911738  0.87728627  0.72836066    -0.05400
C685        C  0.58788195  0.88757963  0.73124815    -0.06200
C686        C  0.61473987  0.82117996  0.73020601    -0.06100
C687        C  0.66081880  0.87664056  0.76852603    -0.05400
C688        C  0.58923565  0.88760276  0.77121511    -0.06200
C689        C  0.61605995  0.82135851  0.77047280    -0.06100
C690        C  0.70083720  0.88010061  0.77805343    -0.31500
N691        N  0.72298595  0.88627124  0.74564543     0.15000
C692        C  0.69790005  0.88328711  0.71508268    -0.31500
H693        H  0.70713099  0.88502140  0.68533240     0.17000
C694        C  0.55955419  0.91307287  0.78389617    -0.30500
N695        N  0.54064384  0.92849523  0.75265417     0.13700
C696        C  0.55781965  0.91309470  0.72044618    -0.30400
C697        C  0.61135849  0.78241179  0.78256893    -0.30700
N698        N  0.60612212  0.75875001  0.75126125     0.14300
H699        H  0.61107145  0.77196087  0.81202785     0.16900
C700        C  0.60960004  0.78183510  0.71920631    -0.30700
H701        H  0.60708345  0.77072867  0.69012305     0.16900
H702        H  0.54971203  0.92079240  0.69124464     0.16900
H703        H  0.71336894  0.87695720  0.80652844     0.17000
H704        H  0.55348105  0.92123898  0.81345946     0.16900
O705        O  0.91292973  0.93243740  0.97448132    -0.77700
C706        C  0.99031297  0.98906698  0.88889330     0.83300
O707        O  0.04830136  0.91273464  0.51652553    -0.78800
O708        O  0.07138581  0.04788176  0.97052374    -0.80300
O709        O  0.93294964  0.07144428  0.51164378    -0.80100
O710        O  0.89366622  0.97863369  0.51629290    -0.78800
Zn711      Zn  0.97112920  0.94553144  0.96286954     1.55700
O712        O  0.98051766  0.08789232  0.96942473    -0.80100
Cd713      Cd  0.94516238  0.01215067  0.52352885     1.59700
Cd714      Cd  0.03571172  0.97219413  0.52507782     1.59600
O715        O  0.95957009  0.00844492  0.58018177    -0.80100
O716        O  0.99053334  0.99064525  0.99259472    -1.90600
Cd717      Cd  0.01148510  0.03552903  0.96077045     1.59900
O718        O  0.01970028  0.97860799  0.58105227    -0.80100
O719        O  0.00496205  0.01998841  0.90486296    -0.78800
C720        C  0.03226462  0.88654831  0.99483033     0.83800
C721        C  0.88616319  0.94774040  0.99612312     0.83400
O722        O  0.97630689  0.95916443  0.90735608    -0.77700
C723        C  0.95034563  0.09717882  0.99008413     0.84300
O724        O  0.00299867  0.89536729  0.97296908    -0.77800
C725        C  0.98942559  0.99376181  0.59776928     0.84400
C726        C  0.09709262  0.03338505  0.99358436     0.84700
O727        O  0.08797311  0.00466734  0.51619193    -0.80200
O728        O  0.91126096  0.93424764  0.72044149    -0.77700
C729        C  0.98909348  0.99411980  0.63889100     0.83300
O730        O  0.04714156  0.91097825  0.76330879    -0.78800
O731        O  0.07059764  0.04831148  0.72037035    -0.80300
O732        O  0.93486705  0.07096412  0.76860493    -0.80100
O733        O  0.89271212  0.97901212  0.76398094    -0.78800
Zn734      Zn  0.97025838  0.94682755  0.71093182     1.55700
O735        O  0.98128962  0.08970720  0.72611635    -0.80100
Cd736      Cd  0.94488098  0.01022562  0.77464248     1.59700
Cd737      Cd  0.03568161  0.97071631  0.77366384     1.59600
O738        O  0.95865261  0.00123719  0.83084866    -0.80100
O739        O  0.99002055  0.99055194  0.74242642    -1.90600
Cd740      Cd  0.01016942  0.03729619  0.71234241     1.59900
O741        O  0.02090116  0.97603164  0.83024772    -0.80100
O742        O  0.00146109  0.02548115  0.65579322    -0.78800
C743        C  0.03019522  0.88563071  0.74123609     0.83800
C744        C  0.88463741  0.94931493  0.74243942     0.83400
O745        O  0.97723019  0.96273787  0.65638342    -0.77700
C746        C  0.95246395  0.09807159  0.74886021     0.84300
O747        O  0.00097397  0.89564913  0.71979447    -0.77800
C748        C  0.98972909  0.98826672  0.84772816     0.84400
C749        C  0.09644028  0.03324375  0.74295310     0.84700
O750        O  0.08773594  0.00388900  0.76496351    -0.80200
C751        C  0.13024088  0.63016302  0.95697571     0.30800
C752        C  0.13190397  0.62963597  0.53634775     0.30800
C753        C  0.12381888  0.67059311  0.97677744    -0.05400
C754        C  0.09868049  0.60328383  0.97733413    -0.06200
C755        C  0.16937780  0.61513481  0.97576661    -0.06100
C756        C  0.12436464  0.67047887  0.51702439    -0.05400
C757        C  0.09893812  0.60377784  0.51751805    -0.06200
C758        C  0.17001963  0.61533661  0.51582633    -0.06100
C759        C  0.10733993  0.70602907  0.52852755    -0.31500
N760        N  0.09870151  0.72817559  0.99692737     0.15000
C761        C  0.10775474  0.70644361  0.96517824    -0.31500
H762        H  0.10134071  0.71527872  0.93588105     0.17000
C763        C  0.06966837  0.57732915  0.52985632    -0.30500
N764        N  0.05296486  0.55951298  0.99866522     0.13700
C765        C  0.07086612  0.57474241  0.96661754    -0.30400
C766        C  0.20681359  0.60136522  0.52725811    -0.30700
N767        N  0.22902042  0.59274318  0.99545264     0.14300
H768        H  0.21619994  0.59713483  0.55671074     0.16900
C769        C  0.20595964  0.60010081  0.96396925    -0.30700
H770        H  0.21527826  0.59509089  0.93457205     0.16900
H771        H  0.06482693  0.56462503  0.93769457     0.16900
H772        H  0.09900558  0.71416868  0.55756609     0.17000
H773        H  0.06246527  0.57008455  0.55939569     0.16900
C774        C  0.13013985  0.62769199  0.70684537     0.30800
C775        C  0.12774405  0.62799904  0.78621169     0.30800
C776        C  0.11143729  0.66482781  0.72590911    -0.05400
C777        C  0.10504039  0.59395525  0.72610694    -0.06200
C778        C  0.17072444  0.62421111  0.72728400    -0.06100
C779        C  0.11082483  0.66500244  0.76596885    -0.05400
C780        C  0.10435854  0.59361285  0.76639509    -0.06200
C781        C  0.16959910  0.62385236  0.76741260    -0.06100
C782        C  0.09425448  0.70059427  0.77748899    -0.31500
N783        N  0.08484236  0.72229109  0.74568729     0.15000
C784        C  0.09407296  0.70011774  0.71415151    -0.31500
H785        H  0.08926319  0.70950274  0.68477650     0.17000
C786        C  0.07800916  0.56355154  0.77736576    -0.30500
N787        N  0.06105909  0.54731764  0.74539670     0.13700
C788        C  0.07743694  0.56570181  0.71411001    -0.30400
C789        C  0.20608355  0.60897659  0.77936299    -0.30700
N790        N  0.22983553  0.60276923  0.74819300     0.14300
H791        H  0.21378176  0.60016094  0.80835286     0.16900
C792        C  0.20817837  0.61113173  0.71617755    -0.30700
H793        H  0.21807116  0.60586887  0.68693170     0.16900
H794        H  0.06895090  0.55977087  0.68474008     0.16900
H795        H  0.08945717  0.70987657  0.80693231     0.17000
H796        H  0.07027174  0.55516695  0.80650619     0.16900
C797        C  0.35790185  0.13115109  0.53546447     0.30800
C798        C  0.35729893  0.13168112  0.95603894     0.30800
C799        C  0.36592569  0.17159842  0.51603522    -0.05400
C800        C  0.38858137  0.10390686  0.51535566    -0.06200
C801        C  0.31860238  0.11705225  0.51626631    -0.06100
C802        C  0.36514374  0.17234362  0.97585185    -0.05400
C803        C  0.38842038  0.10440454  0.97519809    -0.06200
C804        C  0.31779761  0.11875880  0.97610259    -0.06100
C805        C  0.37382577  0.21124167  0.96501075    -0.31500
N806        N  0.38153795  0.23293680  0.99710224     0.15000
C807        C  0.37687355  0.20910099  0.52839920    -0.31500
H808        H  0.38254305  0.21807480  0.55779404     0.17000
C809        C  0.41602240  0.07660564  0.96291607    -0.30500
N810        N  0.43270370  0.05933727  0.99439396     0.13700
C811        C  0.41547342  0.07501671  0.52633917    -0.30400
C812        C  0.27972101  0.10731490  0.96508291    -0.30700
N813        N  0.25869749  0.09570828  0.99674746     0.14300
H814        H  0.26799148  0.10704960  0.93614400     0.16900
C815        C  0.28224040  0.10118973  0.52809897    -0.30700
H816        H  0.27340901  0.09423066  0.55732499     0.16900
H817        H  0.42107327  0.06464445  0.55529480     0.16900
H818        H  0.37617051  0.22293399  0.93606623     0.17000
H819        H  0.42309539  0.06912890  0.93338299     0.16900
C820        C  0.35622025  0.13323505  0.78529074     0.30800
C821        C  0.35860519  0.13094394  0.70602555     0.30800
C822        C  0.36429956  0.17322698  0.76457517    -0.05400
C823        C  0.38722995  0.10501607  0.76721781    -0.06200
C824        C  0.31691556  0.12011603  0.76519956    -0.06100
C825        C  0.36641584  0.17183777  0.72458174    -0.05400
C826        C  0.38810003  0.10334592  0.72712584    -0.06200
C827        C  0.31852018  0.11808799  0.72509308    -0.06100
C828        C  0.37452037  0.21008721  0.71169419    -0.31500
N829        N  0.37638176  0.23472389  0.74269505     0.15000
C830        C  0.36861576  0.21268196  0.77475518    -0.31500
H831        H  0.36677913  0.22475400  0.80352658     0.17000
C832        C  0.41120843  0.07081733  0.71752682    -0.30500
N833        N  0.42631107  0.05452830  0.75014322     0.13700
C834        C  0.41115351  0.07458700  0.78077661    -0.30400
C835        C  0.28203690  0.10333230  0.71296456    -0.30700
N836        N  0.25724900  0.09875929  0.74393920     0.14300
H837        H  0.27495312  0.09504602  0.68376257     0.16900
C838        C  0.27840371  0.10930227  0.77589132    -0.30700
H839        H  0.26657999  0.10950696  0.80489727     0.16900
H840        H  0.41652721  0.06711146  0.81061494     0.16900
H841        H  0.38030869  0.21888457  0.68220271     0.17000
H842        H  0.41554219  0.05861299  0.68904005     0.16900
O843        O  0.46783667  0.47972978  0.90947745    -0.77700
C844        C  0.45350864  0.38922658  0.99610909     0.83300
O845        O  0.41802257  0.55222765  0.51498684    -0.78800
O846        O  0.50672695  0.46430907  0.58412612    -0.80300
O847        O  0.59456647  0.47560978  0.97330883    -0.80100
O848        O  0.52965364  0.50677271  0.90775249    -0.78800
Zn849      Zn  0.45249480  0.47399162  0.96411247     1.55700
O850        O  0.57540887  0.43546729  0.52140332    -0.80100
Cd851      Cd  0.54463269  0.51113059  0.96424935     1.59700
Cd852      Cd  0.47755665  0.53925150  0.52518781     1.59600
O853        O  0.56019452  0.57042154  0.97509622    -0.80100
O854        O  0.49702884  0.49290643  0.99492665    -1.90600
Cd855      Cd  0.51516867  0.44838696  0.52836878     1.59900
O856        O  0.51127875  0.58974462  0.51447858    -0.80100
O857        O  0.48272738  0.39677580  0.51852795    -0.78800
C858        C  0.39227277  0.53552231  0.99320482     0.83800
C859        C  0.49828961  0.49327384  0.89141167     0.83400
O860        O  0.43919479  0.41602626  0.97410013    -0.77700
C861        C  0.60184111  0.44815866  0.99770794     0.84300
O862        O  0.40167225  0.50562490  0.97248640    -0.77800
C863        C  0.54301423  0.59733840  0.99510191     0.84400
C864        C  0.49421495  0.49588938  0.60034198     0.84700
O865        O  0.48253371  0.52666932  0.58222367    -0.80200
O866        O  0.39909787  0.51021903  0.72567605    -0.77700
C867        C  0.49414990  0.49690010  0.64147768     0.83300
O868        O  0.47649993  0.39871520  0.76591332    -0.78800
O869        O  0.59067550  0.47922029  0.72332985    -0.80300
O870        O  0.51068870  0.59138886  0.76744741    -0.80100
O871        O  0.41617784  0.55368712  0.77092500    -0.78800
Zn872      Zn  0.44834285  0.47788180  0.71424268     1.55700
O873        O  0.55668843  0.57206499  0.72505291    -0.80100
Cd874      Cd  0.47655435  0.54050241  0.77774492     1.59700
Cd875      Cd  0.51196666  0.44812554  0.77586807     1.59600
O876        O  0.48534040  0.52531536  0.83371474    -0.80100
O877        O  0.49362533  0.49473934  0.74520760    -1.90600
Cd878      Cd  0.54052915  0.51346346  0.71441699     1.59900
O879        O  0.50718207  0.46201866  0.83258196    -0.80100
O880        O  0.52596875  0.50873440  0.65809966    -0.78800
C881        C  0.44648676  0.39242125  0.74411669     0.83800
C882        C  0.39000879  0.53848277  0.74850865     0.83400
O883        O  0.46283338  0.48498181  0.65928800    -0.77700
C884        C  0.54155457  0.59873626  0.74665383     0.84300
O885        O  0.43292311  0.41987497  0.72242119    -0.77800
C886        C  0.49695977  0.49356803  0.85029075     0.84400
C887        C  0.59824517  0.44881225  0.74402423     0.84700
O888        O  0.57138932  0.43300891  0.76556753    -0.80200
C889        C  0.39189723  0.27501391  0.74316576    -0.04700
C890        C  0.41825142  0.28630431  0.77263839    -0.32100
C891        C  0.43547458  0.32435244  0.77359122     0.37100
C892        C  0.42706596  0.35229708  0.74426690    -0.05100
C893        C  0.39996042  0.34134781  0.71500368    -0.32000
C894        C  0.38236773  0.30305283  0.71436079     0.37000
H895        H  0.42628276  0.26512838  0.79486896     0.17400
O896        O  0.46081221  0.33358836  0.80335698    -0.59500
H897        H  0.39264067  0.36233819  0.69235057     0.17400
O898        O  0.35593049  0.29346650  0.68561110    -0.59600
H899        H  0.32883297  0.29718888  0.69700713     0.44400
H900        H  0.44322662  0.34464159  0.82377099     0.44400
C901        C  0.35843032  0.13028670  0.91170950    -0.04700
C902        C  0.38525007  0.15504108  0.89107097    -0.32100
C903        C  0.38565789  0.15590677  0.85058412     0.37100
C904        C  0.35747364  0.13279315  0.82956453    -0.05100
C905        C  0.33724568  0.10229367  0.85000099    -0.32000
C906        C  0.33862707  0.10000377  0.89044532     0.37000
H907        H  0.40775695  0.17225988  0.90620633     0.17400
O908        O  0.41657521  0.17555745  0.83196606    -0.59500
H909        H  0.32213730  0.07857776  0.83451388     0.17400
O910        O  0.32507940  0.06581851  0.90854172    -0.59600
H911        H  0.29866845  0.05892135  0.89706096     0.44400
H912        H  0.41860671  0.20254747  0.84366435     0.44400
C913        C  0.35847572  0.13312886  0.57970579    -0.04700
C914        C  0.39460121  0.12766416  0.59993635    -0.32100
C915        C  0.39566198  0.12754275  0.64039219     0.37100
C916        C  0.35974726  0.13230057  0.66180108    -0.05100
C917        C  0.32591695  0.14600618  0.64157931    -0.32000
C918        C  0.32517936  0.14707773  0.60113329     0.37000
H919        H  0.42276851  0.12541254  0.58451397     0.17400
O920        O  0.43230265  0.12725282  0.65851255    -0.59500
H921        H  0.30012138  0.15720110  0.65717304     0.17400
O922        O  0.29352184  0.16521182  0.58290382    -0.59600
H923        H  0.26858048  0.15353686  0.59411462     0.44400
H924        H  0.44766510  0.10470696  0.64732483     0.44400
C925        C  0.43541014  0.34858612  0.99596761    -0.04700
C926        C  0.39672895  0.34265604  0.98059088    -0.32100
C927        C  0.37859647  0.30474350  0.98111137     0.37100
C928        C  0.39894204  0.27220512  0.99731385    -0.05100
C929        C  0.43747302  0.27782692  0.51247553    -0.32000
C930        C  0.45601508  0.31544773  0.51143350     0.37000
H931        H  0.38027062  0.36750996  0.96848808     0.17400
O932        O  0.34089138  0.29974622  0.96600079    -0.59500
H933        H  0.45356900  0.25259122  0.52429350     0.17400
O934        O  0.49448559  0.31921466  0.52508100    -0.59600
H935        H  0.51214118  0.31506240  0.50234720     0.44400
H936        H  0.32223867  0.30206410  0.98819759     0.44400
C937        C  0.26965020  0.58619167  0.74898330    -0.04700
C938        C  0.28089680  0.55769602  0.72155432    -0.32100
C939        C  0.31945695  0.54131702  0.72152007     0.37100
C940        C  0.34820174  0.55403791  0.74885223    -0.05100
C941        C  0.33665440  0.58230958  0.77665803    -0.32000
C942        C  0.29783810  0.59827255  0.77690595     0.37000
H943        H  0.25944178  0.54762852  0.70026930     0.17400
O944        O  0.32874871  0.51342976  0.69405955    -0.59500
H945        H  0.35782451  0.59237616  0.79822732     0.17400
O946        O  0.28805505  0.62621692  0.80416144    -0.59600
H947        H  0.29193559  0.65248432  0.79132101     0.44400
H948        H  0.31937131  0.48748842  0.70486676     0.44400
C949        C  0.12882581  0.63247747  0.91267545    -0.04700
C950        C  0.09242656  0.62671928  0.89265734    -0.32100
C951        C  0.09110756  0.62603419  0.85212046     0.37100
C952        C  0.12683228  0.63110851  0.83049710    -0.05100
C953        C  0.16069470  0.64569260  0.85050878    -0.32000
C954        C  0.16188869  0.64671482  0.89092766     0.37000
H955        H  0.06433440  0.62449725  0.90823185     0.17400
O956        O  0.05451930  0.62424861  0.83392183    -0.59500
H957        H  0.18612114  0.65800826  0.83494642     0.17400
O958        O  0.19383365  0.66503440  0.90885982    -0.59600
H959        H  0.21861437  0.65384986  0.89720552     0.44400
H960        H  0.03901892  0.60222152  0.84629225     0.44400
C961        C  0.13490489  0.62827783  0.58053942    -0.04700
C962        C  0.14590864  0.66253988  0.60161075    -0.32100
C963        C  0.14624625  0.66238701  0.64211943     0.37100
C964        C  0.13381031  0.62784447  0.66263638    -0.05100
C965        C  0.13104262  0.59198289  0.64156455    -0.32000
C966        C  0.13236811  0.59187624  0.60120256     0.37000
H967        H  0.15601236  0.68927743  0.58685190     0.17400
O968        O  0.16201475  0.69474675  0.66137410    -0.59500
H969        H  0.12966961  0.56348705  0.65621610     0.17400
O970        O  0.13240501  0.55583421  0.58242626    -0.59600
H971        H  0.16085435  0.54717373  0.58224294     0.44400
H972        H  0.14952361  0.71895644  0.65014357     0.44400
C973        C  0.35044655  0.55085292  0.99269939    -0.04700
C974        C  0.33732079  0.57608971  0.02241632    -0.32100
C975        C  0.29787697  0.59032683  0.02348929     0.37100
C976        C  0.27007835  0.57877804  0.99488119    -0.05100
C977        C  0.28340933  0.55401725  0.96484008    -0.32000
C978        C  0.32313640  0.54045881  0.96334189     0.37000
H979        H  0.35771256  0.58493446  0.04513194     0.17400
O980        O  0.28726729  0.61613731  0.05233388    -0.59500
H981        H  0.26288493  0.54480484  0.94242388     0.17400
O982        O  0.33481539  0.51714112  0.93291679    -0.59600
H983        H  0.34487322  0.53624354  0.41316764     0.44400
H984        H  0.29324700  0.64323473  0.04206886     0.44400
C985        C  0.13753072  0.05053121  0.74363982    -0.04700
C986        C  0.15295113  0.06985158  0.71082050    -0.32100
C987        C  0.19167574  0.08650965  0.71061378     0.37100
C988        C  0.21639432  0.08341218  0.74355655    -0.05100
C989        C  0.20033637  0.06478542  0.77663348    -0.32000
C990        C  0.16137820  0.04874823  0.77694747     0.37000
H991        H  0.13488701  0.07208137  0.68504742     0.17400
O992        O  0.20445624  0.10620416  0.67812983    -0.59500
H993        H  0.21809231  0.06202629  0.80246558     0.17400
O994        O  0.14635038  0.03286265  0.81051852    -0.59600
H995        H  0.15730830  0.00539727  0.81189310     0.44400
H996        H  0.19935526  0.13490524  0.68318532     0.44400
C997        C  0.04436780  0.84349640  0.74138215    -0.04700
C998        C  0.07063860  0.83081976  0.77045824    -0.32100
C999        C  0.08403006  0.79130348  0.77217586     0.37100
C1000       C  0.07058631  0.76298253  0.74499543    -0.05100
C1001       C  0.04462663  0.77562321  0.71566872    -0.32000
C1002       C  0.03182075  0.81542721  0.71347046     0.37000
H1003       H  0.08114198  0.85166747  0.79207455     0.17400
O1004       O  0.11119472  0.78112031  0.80000648    -0.59500
H1005       H  0.03418437  0.75452450  0.69427439     0.17400
O1006       O  0.00715658  0.82641299  0.68381214    -0.59600
H1007       H  0.02556365  0.83374376  0.66235466     0.44400
H1008       H  0.13799220  0.78515207  0.78791953     0.44400
C1009       C  0.13858812  0.05014673  0.99431398    -0.04700
C1010       C  0.16739510  0.03292101  0.51870099    -0.32100
C1011       C  0.20682895  0.04764764  0.51985649     0.37100
C1012       C  0.21820246  0.08038160  0.99660019    -0.05100
C1013       C  0.18964136  0.09762439  0.97222362    -0.32000
C1014       C  0.15014571  0.08309983  0.97110502     0.37000
H1015       H  0.15956469  0.00758802  0.53678420     0.17400
O1016       O  0.23422274  0.02916678  0.54315253    -0.59500
H1017       H  0.19791149  0.12291344  0.95426901     0.17400
O1018       O  0.12334656  0.10132362  0.94698241    -0.59600
H1019       H  0.11136692  0.12321506  0.96240458     0.44400
H1020       H  0.24683060  0.00838811  0.52685149     0.44400
C1021       C  0.04823088  0.84511647  0.99537975    -0.04700
C1022       C  0.07935073  0.83552797  0.52103222    -0.32100
C1023       C  0.09551279  0.79705608  0.52221981     0.37100
C1024       C  0.08110556  0.76731467  0.99716694    -0.05100
C1025       C  0.04990777  0.77651083  0.97170313    -0.32000
C1026       C  0.03332749  0.81490285  0.97073635     0.37000
H1027       H  0.09154979  0.85795981  0.54025014     0.17400
O1028       O  0.12690596  0.78935685  0.54654410    -0.59500
H1029       H  0.03821762  0.75370565  0.95261258     0.17400
O1030       O  0.00241724  0.82228055  0.94578131    -0.59600
H1031       H  0.01560276  0.82959075  0.92108472     0.44400
H1032       H  0.11461941  0.78670974  0.57245889     0.44400
C1033       C  0.45501305  0.02261046  0.75140583    -0.04700
C1034       C  0.45003143  0.99048638  0.77716512    -0.32100
C1035       C  0.47789176  0.95909908  0.77782881     0.37100
C1036       C  0.51143546  0.95999630  0.75287729    -0.05100
C1037       C  0.51639878  0.99233005  0.72753922    -0.32000
C1038       C  0.48875732  0.02347835  0.72683338     0.37000
H1039       H  0.42413456  0.98943783  0.79615746     0.17400
O1040       O  0.47166311  0.92738785  0.80226805    -0.59500
H1041       H  0.54233634  0.99373553  0.70862159     0.17400
O1042       O  0.49541863  0.05516881  0.70247771    -0.59600
H1043       H  0.50986683  0.07541411  0.71813621     0.44400
H1044       H  0.45781456  0.90679420  0.78659374     0.44400
C1045       C  0.59242376  0.71778869  0.75177673    -0.04700
C1046       C  0.60637941  0.69066493  0.72406909    -0.32100
C1047       C  0.59081339  0.65160982  0.72225076     0.37100
C1048       C  0.56018046  0.63925573  0.74813730    -0.05100
C1049       C  0.54677028  0.66642320  0.77609196    -0.32000
C1050       C  0.56237689  0.70521477  0.77794222     0.37000
H1051       H  0.62927032  0.69993781  0.70359359     0.17400
O1052       O  0.60488213  0.62639519  0.69425044    -0.59500
H1053       H  0.52348336  0.65788679  0.79645511     0.17400
O1054       O  0.54673081  0.73107602  0.80456475    -0.59600
H1055       H  0.52522736  0.74570463  0.79085323     0.44400
H1056       H  0.62905047  0.61373599  0.70546767     0.44400
C1057       C  0.76444184  0.89943904  0.74498668    -0.04700
C1058       C  0.77861482  0.92335047  0.77524730    -0.32100
C1059       C  0.81735682  0.93952355  0.77474171     0.37100
C1060       C  0.84348009  0.93180720  0.74358201    -0.05100
C1061       C  0.82991336  0.90689672  0.71368413    -0.32000
C1062       C  0.79067312  0.89098491  0.71401918     0.37000
H1063       H  0.75911057  0.93065619  0.79919466     0.17400
O1064       O  0.82954536  0.96216882  0.80548102    -0.59500
H1065       H  0.84956432  0.90007134  0.68967108     0.17400
O1066       O  0.77890617  0.86614557  0.68473932    -0.59600
H1067       H  0.77651148  0.88359901  0.66174932     0.44400
H1068       H  0.81859121  0.98924478  0.80068212     0.44400
C1069       C  0.51956182  0.96656018  0.99622542    -0.04700
C1070       C  0.52319179  0.99931995  0.52113242    -0.32100
C1071       C  0.49517369  0.03025895  0.52027031     0.37100
C1072       C  0.46265192  0.02859728  0.99443036    -0.05100
C1073       C  0.45912849  0.99597325  0.96936261    -0.32000
C1074       C  0.48707022  0.96490217  0.97037305     0.37000
H1075       H  0.54819554  0.00112806  0.54092571     0.17400
O1076       O  0.50006836  0.06221622  0.54452299    -0.59500
H1077       H  0.43398521  0.99410634  0.94974395     0.17400
O1078       O  0.48173152  0.93252260  0.94674783    -0.59600
H1079       H  0.46878899  0.91175662  0.96312501     0.44400
H1080       H  0.51330763  0.08328328  0.52871376     0.44400
C1081       C  0.62185510  0.86198842  0.91627517    -0.04700
C1082       C  0.64479141  0.89048820  0.89581357    -0.32100
C1083       C  0.64453861  0.89219333  0.85534122     0.37100
C1084       C  0.62205163  0.86381566  0.83402244    -0.05100
C1085       C  0.59356372  0.84085615  0.85458497    -0.32000
C1086       C  0.59255329  0.84049660  0.89509670     0.37000
H1087       H  0.66143641  0.91321518  0.91120054     0.17400
O1088       O  0.66222546  0.92446691  0.83727777    -0.59500
H1089       H  0.57085278  0.82407327  0.83916428     0.17400
O1090       O  0.56051570  0.82259703  0.91361171    -0.59600
H1091       H  0.55730762  0.79557097  0.90223477     0.44400
H1092       H  0.68969997  0.92716394  0.84802175     0.44400
C1093       C  0.61801464  0.86487202  0.58418672    -0.04700
C1094       C  0.59044430  0.84069527  0.60474758    -0.32100
C1095       C  0.58892497  0.84100584  0.64512255     0.37100
C1096       C  0.61647193  0.86456135  0.66621418    -0.05100
C1097       C  0.63703910  0.89478991  0.64564791    -0.32000
C1098       C  0.63758978  0.89550729  0.60515384     0.37000
H1099       H  0.56867382  0.82257010  0.58961233     0.17400
O1100       O  0.55906191  0.81966851  0.66332765    -0.59500
H1101       H  0.65198547  0.91877482  0.66090679     0.17400
O1102       O  0.65421934  0.92791705  0.58638442    -0.59600
H1103       H  0.68099494  0.93268927  0.59805225     0.44400
H1104       H  0.53735724  0.83922853  0.66826603     0.44400
C1105       C  0.58871791  0.71821002  0.00059636    -0.04700
C1106       C  0.61046462  0.68920069  0.98040215    -0.32100
C1107       C  0.59630431  0.64963035  0.97819023     0.37100
C1108       C  0.55964308  0.63872630  0.99630718    -0.05100
C1109       C  0.53795455  0.66830197  0.51616974    -0.32000
C1110       C  0.55209073  0.70760177  0.51819876     0.37000
H1111       H  0.63850847  0.69735479  0.96638607     0.17400
O1112       O  0.61885305  0.62195153  0.95878868    -0.59500
H1113       H  0.50949524  0.66122030  0.52994381     0.17400
O1114       O  0.52927259  0.73581564  0.53656730    -0.59600
H1115       H  0.51252227  0.74794735  0.51611965     0.44400
H1116       H  0.61180331  0.62546024  0.93130920     0.44400
C1117       C  0.76598396  0.89846697  0.00270365    -0.04700
C1118       C  0.79291527  0.88480399  0.97449308    -0.32100
C1119       C  0.83233231  0.89974280  0.97232492     0.37100
C1120       C  0.84538130  0.92944194  0.99838831    -0.05100
C1121       C  0.81862688  0.94231602  0.02716213    -0.32000
C1122       C  0.77940286  0.92725461  0.02941599     0.37000
H1123       H  0.78322874  0.86259033  0.95382323     0.17400
O1124       O  0.85720862  0.88606091  0.94373734    -0.59500
H1125       H  0.82783438  0.96474650  0.04784385     0.17400
O1126       O  0.75406421  0.94211182  0.05703516    -0.59600
H1127       H  0.74090706  0.96548167  0.04489771     0.44400
H1128       H  0.86942958  0.86140032  0.95427363     0.44400
C1129       C  0.96661826  0.45969314  0.74726593    -0.04700
C1130       C  0.96748216  0.48938745  0.71872939    -0.32100
C1131       C  0.99825103  0.51821978  0.71755694     0.37100
C1132       C  0.02932418  0.51752607  0.74519883    -0.05100
C1133       C  0.02847991  0.48754876  0.77359426    -0.32000
C1134       C  0.99745806  0.45898325  0.77492839     0.37000
H1135       H  0.94362902  0.49073196  0.69765990     0.17400
O1136       O  0.99620644  0.54825103  0.69071439    -0.59500
H1137       H  0.05225005  0.48600699  0.79471012     0.17400
O1138       O  0.99861825  0.42933696  0.80223139    -0.59600
H1139       H  0.99136966  0.44252374  0.82682021     0.44400
H1140       H  0.00208116  0.53533114  0.66565367     0.44400
C1141       C  0.93946525  0.14040188  0.75218517    -0.04700
C1142       C  0.95864377  0.16989471  0.72951699    -0.32100
C1143       C  0.94618273  0.20970148  0.73061244     0.37100
C1144       C  0.91373243  0.22076856  0.75428186    -0.05100
C1145       C  0.89571928  0.19199829  0.77827706    -0.32000
C1146       C  0.90833846  0.15214533  0.77752474     0.37000
H1147       H  0.98324317  0.16213944  0.71047488     0.17400
O1148       O  0.96584766  0.23754307  0.70827616    -0.59500
H1149       H  0.87085588  0.20024884  0.79679752     0.17400
O1150       O  0.88915278  0.12488598  0.80088267    -0.59600
H1151       H  0.90231212  0.12757555  0.82628476     0.44400
H1152       H  0.98395328  0.25207238  0.72611950     0.44400
C1153       C  0.63945903  0.43197888  0.74338459    -0.04700
C1154       C  0.65109402  0.40454970  0.77188949    -0.32100
C1155       C  0.69025803  0.38952225  0.77278794     0.37100
C1156       C  0.71876732  0.40190377  0.74496738    -0.05100
C1157       C  0.70697568  0.42847636  0.71599668    -0.32000
C1158       C  0.66792659  0.44366754  0.71510535     0.37000
H1159       H  0.62991436  0.39490879  0.79385280     0.17400
O1160       O  0.70019642  0.36244006  0.80079653    -0.59500
H1161       H  0.72842433  0.43817305  0.69432327     0.17400
O1162       O  0.65787481  0.46942948  0.68598877    -0.59600
H1163       H  0.66716505  0.49617106  0.69468735     0.44400
H1164       H  0.69656573  0.33579813  0.78874729     0.44400
C1165       C  0.02388376  0.52738845  0.99916077    -0.04700
C1166       C  0.02618530  0.49697836  0.97137668    -0.32100
C1167       C  0.99787431  0.46589876  0.97058016     0.37100
C1168       C  0.96696583  0.46440019  0.99831760    -0.05100
C1169       C  0.96484791  0.49438953  0.52638207    -0.32000
C1170       C  0.99282078  0.52583716  0.52688896     0.37000
H1171       H  0.05030858  0.49700604  0.95036564     0.17400
O1172       O  0.00170687  0.43614962  0.94371423    -0.59500
H1173       H  0.94077111  0.49388519  0.54747012     0.17400
O1174       O  0.98815772  0.55601493  0.55317248    -0.59600
H1175       H  0.99525062  0.54411949  0.57839280     0.44400
H1176       H  0.99341007  0.44835782  0.91898037     0.44400
C1177       C  0.85928226  0.35662767  0.83239313    -0.04700
C1178       C  0.89615812  0.36066758  0.85180585    -0.32100
C1179       C  0.89820300  0.36067431  0.89220585     0.37100
C1180       C  0.86255553  0.35767844  0.91437958    -0.05100
C1181       C  0.82766578  0.34497609  0.89500252    -0.32000
C1182       C  0.82590319  0.34372111  0.85460995     0.37000
H1183       H  0.92399925  0.36218045  0.83565163     0.17400
O1184       O  0.93520668  0.35928302  0.90961286    -0.59500
H1185       H  0.80204434  0.33388350  0.91112905     0.17400
O1186       O  0.79356902  0.32535600  0.83739367    -0.59600
H1187       H  0.76905077  0.33680799  0.84930212     0.44400
H1188       H  0.95189282  0.38067318  0.89762024     0.44400
C1189       C  0.86195089  0.35754135  0.58226943    -0.04700
C1190       C  0.85091651  0.32251717  0.60241104    -0.32100
C1191       C  0.84849312  0.32165920  0.64272879     0.37100
C1192       C  0.85907864  0.35581618  0.66450188    -0.05100
C1193       C  0.86243310  0.39220293  0.64427375    -0.32000
C1194       C  0.86328059  0.39347211  0.60378802     0.37000
H1195       H  0.84177918  0.29600138  0.58694997     0.17400
O1196       O  0.83297945  0.28804755  0.66005005    -0.59500
H1197       H  0.86318135  0.42018312  0.65985472     0.17400
O1198       O  0.86155362  0.42995655  0.58557212    -0.59600
H1199       H  0.88283516  0.44697873  0.59715855     0.44400
H1200       H  0.80409616  0.29384456  0.66432366     0.44400
C1201       C  0.93561561  0.13903296  0.98972921    -0.04700
C1202       C  0.90487157  0.15028410  0.01537348    -0.32100
C1203       C  0.89161850  0.18981243  0.01704226     0.37100
C1204       C  0.90916662  0.21907040  0.99305271    -0.05100
C1205       C  0.93913440  0.20797446  0.46681346    -0.32000
C1206       C  0.95240190  0.16840678  0.46492739     0.37000
H1207       H  0.89109676  0.12846988  0.03447744     0.17400
O1208       O  0.86111044  0.19948406  0.04194192    -0.59500
H1209       H  0.95266255  0.23026850  0.44806226     0.17400
O1210       O  0.98221721  0.15912447  0.43912631    -0.59600
H1211       H  0.96802147  0.15218800  0.41499701     0.44400
H1212       H  0.83637792  0.19933303  0.02611694     0.44400
C1213       C  0.64237364  0.43113252  0.99911244    -0.04700
C1214       C  0.66644489  0.43820004  0.53133174    -0.32100
C1215       C  0.70608483  0.42433933  0.53263054     0.37100
C1216       C  0.72187094  0.40199610  0.50160593    -0.05100
C1217       C  0.69690390  0.39406658  0.96982184    -0.32000
C1218       C  0.65775523  0.40901359  0.96817783     0.37000
H1219       H  0.65490339  0.45576791  0.55505954     0.17400
O1220       O  0.72978341  0.43525919  0.56307112    -0.59500
H1221       H  0.70779452  0.37636676  0.94596155     0.17400
O1222       O  0.63442131  0.40109051  0.93661982    -0.59600
H1223       H  0.64090818  0.42269323  0.91797819     0.44400
H1224       H  0.71957872  0.41948680  0.58530264     0.44400
loop_ 
_geom_bond_atom_site_label_1 
_geom_bond_atom_site_label_2 
_geom_bond_distance 
_geom_bond_site_symmetry_2 
_ccdc_geom_bond_type 
C1            C3   1.535       .  S
C1            C5   1.542       .  S
C1            C4   1.545       .  S
C1          C577   1.542       .  S
C2            C6   1.541       .  S
C2            C8   1.531       .  S
C2            C7   1.540       .  S
C2          C568   1.538       .  S
C3           C11   1.375       .  A
C3          C618   1.392   1_554  A
C4           C15   1.377       .  A
C4          C619   1.399   1_554  A
C5           C19   1.378       .  A
C5          C620   1.396   1_554  A
C6            C9   1.377       .  A
C6          C615   1.392       .  A
C7           C13   1.375       .  A
C7          C616   1.399       .  A
C8           C16   1.373       .  A
C8          C617   1.396       .  A
C9           H22   1.081       .  S
C9          N622   1.360       .  A
N10          C11   1.361       .  A
N10         C621   1.360   1_554  A
N10         C604   1.446       .  S
C11          H12   1.080       .  S
C13          H23   1.081       .  S
C13          N14   1.356       .  A
N14         C627   1.357       .  A
N14         C556   1.435       .  S
C15          H21   1.081       .  S
C15         N626   1.357   1_554  A
C16          H18   1.083       .  S
C16         N629   1.355       .  A
N17          C19   1.358   1_556  A
N17         C628   1.355       .  A
N17        C1204   1.434       .  S
C19          H20   1.081       .  S
C24          C26   1.541       .  S
C24          C28   1.536       .  S
C24          C27   1.545       .  S
C24         C580   1.541       .  S
C25          C29   1.531       .  S
C25          C31   1.540       .  S
C25          C30   1.544       .  S
C25         C565   1.538       .  S
C26          C34   1.378       .  A
C26          C29   1.396       .  A
C27          C38   1.380       .  A
C27          C30   1.397       .  A
C28          C42   1.376       .  A
C28          C31   1.396       .  A
C29          C32   1.375       .  A
C30          C36   1.378       .  A
C31          C39   1.377       .  A
C32          H45   1.083       .  S
C32          N33   1.356       .  A
N33          C34   1.358       .  A
N33         C532   1.435       .  S
C34          H35   1.081       .  S
C36          H46   1.081       .  S
C36          N37   1.357       .  A
N37          C38   1.358       .  A
N37         C517   1.441       .  S
C38          H44   1.082       .  S
C39          H41   1.081       .  S
C39          N40   1.357       .  A
N40          C42   1.359       .  A
N40         C544   1.439       .  S
C42          H43   1.082       .  S
C47          C49   1.546       .  S
C47          C51   1.541       .  S
C47          C50   1.529       .  S
C47         C469   1.541       .  S
C48          C52   1.545       .  S
C48          C54   1.546       .  S
C48          C53   1.530       .  S
C48         C481   1.541       .  S
C49          C57   1.379       .  A
C49         C664   1.400       .  A
C50          C61   1.373       .  A
C50         C665   1.390       .  A
C51          C65   1.377       .  A
C51         C666   1.401       .  A
C52          C55   1.378       .  A
C52         C661   1.400   1_554  A
C53          C59   1.375       .  A
C53         C662   1.390   1_554  A
C54          C62   1.380       .  A
C54         C663   1.401   1_554  A
C55          H68   1.081       .  S
C55         N668   1.358       .  A
N56          C57   1.359       .  A
N56         C667   1.358       .  A
N56         C505   1.442       .  S
C57          H58   1.081       .  S
C59          H69   1.083       .  S
C59         N672   1.359   1_554  A
N60          C61   1.358       .  A
N60         C671   1.359       .  A
N60         C457   1.436       .  S
C61          H67   1.082       .  S
C62          H64   1.081       .  S
C62         N675   1.356       .  A
N63          C65   1.353       .  A
N63         C674   1.356       .  A
N63         C493   1.433       .  S
C65          H66   1.081       .  S
C70          C72   1.543       .  S
C70          C74   1.548       .  S
C70          C73   1.529       .  S
C70         C484   1.540       .  S
C71          C75   1.543       .  S
C71          C77   1.542       .  S
C71          C76   1.535       .  S
C71         C472   1.542       .  S
C72          C80   1.381       .  A
C72          C75   1.398       .  A
C73          C84   1.372       .  A
C73          C76   1.390       .  A
C74          C88   1.380       .  A
C74          C77   1.401       .  A
C75          C78   1.377       .  A
C76          C82   1.379       .  A
C77          C85   1.375       .  A
C78          H91   1.081       .  S
C78          N79   1.358       .  A
N79          C80   1.357       .  A
N79         C445   1.444       .  S
C80          H81   1.079       .  S
C82          H92   1.082       .  S
C82          N83   1.360       .  A
N83          C84   1.359       .  A
N83         C424   1.437       .  S
C84          H90   1.083       .  S
C85          H87   1.081       .  S
C85          N86   1.358       .  A
N86          C88   1.358       .  A
N86         C433   1.440       .  S
C88          H89   1.081       .  S
O93         C109   1.273       .  A
O93         Zn99   2.020       .  S
C94         O110   1.271       .  A
C94         O107   1.270   1_665  A
C94         C136   1.432       .  S
O95         C720   1.273   1_554  A
O95        Cd102   2.056       .  S
O96         C114   1.272       .  A
O96        Cd105   2.061       .  S
O97         C723   1.274   1_554  A
O97        Cd101   2.067       .  S
O98         C721   1.273   1_554  A
O98        Cd101   2.057   1_565  S
Zn99        O110   1.989       .  S
Zn99        O112   2.021   1_655  S
Zn99        O104   1.938       .  S
O100        C111   1.272       .  A
O100       Cd105   2.059   1_655  S
Cd101       O103   2.033       .  S
Cd101       O716   1.988   1_544  S
Cd102       O106   2.027       .  S
Cd102       O115   2.064   1_565  S
Cd102       O716   1.984   1_454  S
O103        C113   1.269   1_545  A
O104       Cd105   1.983   1_665  S
O104       Cd713   1.988   1_565  S
O104       Cd714   1.984   1_655  S
Cd105       O107   2.025       .  S
O106        C113   1.269   1_455  A
C108        O112   1.273       .  A
C108        O707   1.273       .  A
C108        C409   1.487       .  S
C109        O710   1.273       .  A
C109        C508   1.486       .  S
C111        O709   1.274       .  A
C111        C589   1.485       .  S
C113        C117   1.430       .  S
C114        O727   1.273       .  A
C114        C397   1.486       .  S
O115        C726   1.273   1_554  A
O116        C132   1.274       .  A
O116       Zn122   2.029       .  S
C117        O133   1.271       .  A
C117        O130   1.270   1_665  A
O118        C131   1.274       .  A
O118       Cd125   2.067       .  S
O119        C137   1.272       .  A
O119       Cd128   2.061       .  S
O120        C134   1.273       .  A
O120       Cd124   2.070       .  S
O121        C132   1.273       .  A
O121       Cd124   2.054   1_565  S
Zn122       O133   1.981       .  S
Zn122       O135   2.022   1_655  S
Zn122       O127   1.941       .  S
O123        C134   1.273       .  A
O123       Cd128   2.060   1_655  S
Cd124       O126   2.031       .  S
Cd124       O127   1.985   1_545  S
Cd125       O129   2.034       .  S
Cd125       O138   2.070   1_565  S
Cd125       O127   1.988   1_455  S
O126        C136   1.269   1_545  A
O127       Cd128   1.989   1_665  S
Cd128       O130   2.028       .  S
O129        C136   1.270   1_455  A
C131        O135   1.274       .  A
C131        C385   1.488       .  S
C132        C448   1.485       .  S
C134        C529   1.487       .  S
C137        O138   1.274       .  A
C137        C373   1.480       .  S
C139        C141   1.534       .  S
C139        C143   1.545       .  S
C139        C142   1.545       .  S
C139        C337   1.543       .  S
C140        C144   1.543       .  S
C140        C146   1.531       .  S
C140        C145   1.541       .  S
C140        C349   1.541       .  S
C141        C149   1.376       .  A
C141        C756   1.399       .  A
C142        C153   1.377       .  A
C142        C757   1.397       .  A
C143        C157   1.380       .  A
C143        C758   1.393       .  A
C144        C147   1.379       .  A
C144        C753   1.399   1_554  A
C145        C151   1.377       .  A
C145        C754   1.397   1_554  A
C146        C154   1.373       .  A
C146        C755   1.393   1_554  A
C147        H160   1.081       .  S
C147        N760   1.356   1_554  A
N148        C149   1.356       .  A
N148        C759   1.356       .  A
N148        C412   1.437       .  S
C149        H150   1.082       .  S
C151        H161   1.080       .  S
C151        N764   1.357   1_554  A
N152        C153   1.357       .  A
N152        C763   1.357       .  A
N152        C553   1.440       .  S
C153        H159   1.081       .  S
C154        H156   1.081       .  S
C154        N767   1.359   1_554  A
N155        C157   1.362       .  A
N155        C766   1.359       .  A
N155        C364   1.446       .  S
C157        H158   1.080       .  S
C162        C164   1.542       .  S
C162        C166   1.533       .  S
C162        C165   1.548       .  S
C162        C352   1.541       .  S
C163        C167   1.533       .  S
C163        C169   1.542       .  S
C163        C168   1.548       .  S
C163        C340   1.544       .  S
C164        C172   1.379       .  A
C164        C167   1.393       .  A
C165        C176   1.379       .  A
C165        C168   1.401       .  A
C166        C180   1.377       .  A
C166        C169   1.395       .  A
C167        C170   1.374       .  A
C168        C174   1.381       .  A
C169        C177   1.380       .  A
C170        H183   1.082       .  S
C170        N171   1.360       .  A
N171        C172   1.360       .  A
N171        C388   1.444       .  S
C172        H173   1.081       .  S
C174        H184   1.080       .  S
C174        N175   1.361       .  A
N175        C176   1.358       .  A
N175        C520   1.446       .  S
C176        H182   1.079       .  S
C177        H179   1.082       .  S
C177        N178   1.355       .  A
N178        C180   1.358       .  A
N178        C325   1.439       .  S
C180        H181   1.082       .  S
C185        C187   1.531       .  S
C185        C189   1.541       .  S
C185        C188   1.539       .  S
C185        C301   1.540       .  S
C186        C190   1.546       .  S
C186        C192   1.543       .  S
C186        C191   1.537       .  S
C186        C289   1.542       .  S
C187        C195   1.373       .  A
C187        C802   1.398   1_554  A
C188        C199   1.375       .  A
C188        C803   1.396   1_554  A
C189        C203   1.378       .  A
C189        C804   1.398   1_554  A
C190        C193   1.381       .  A
C190        C799   1.398       .  A
C191        C197   1.378       .  A
C191        C800   1.396       .  A
C192        C200   1.376       .  A
C192        C801   1.398       .  A
C193        H206   1.081       .  S
C193        N194   1.356       .  A
N194        C807   1.355       .  A
N194        C316   1.431       .  S
C195        H196   1.083       .  S
C195        N806   1.355   1_554  A
C197        H207   1.082       .  S
C197        N198   1.359       .  A
N198        C811   1.355       .  A
N198        C460   1.436       .  S
C199        H205   1.081       .  S
C199        N810   1.355   1_554  A
C200        H202   1.081       .  S
C200        N201   1.356       .  A
N201        C815   1.357       .  A
N201        C400   1.438       .  S
C203        H204   1.081       .  S
C203        N813   1.357   1_554  A
C208        C210   1.539       .  S
C208        C212   1.546       .  S
C208        C211   1.535       .  S
C208        C292   1.540       .  S
C209        C213   1.534       .  S
C209        C215   1.544       .  S
C209        C214   1.539       .  S
C209        C304   1.538       .  S
C210        C218   1.373       .  A
C210        C213   1.393       .  A
C211        C222   1.379       .  A
C211        C214   1.395       .  A
C212        C226   1.378       .  A
C212        C215   1.397       .  A
C213        C216   1.378       .  A
C214        C220   1.376       .  A
C215        C223   1.375       .  A
C216        H229   1.082       .  S
C216        N217   1.359       .  A
N217        C218   1.358       .  A
N217        C277   1.439       .  S
C218        H219   1.081       .  S
C220        H230   1.081       .  S
C220        N221   1.357       .  A
N221        C222   1.357       .  A
N221        C421   1.437       .  S
C222        H228   1.082       .  S
C223        H225   1.079       .  S
C223        N224   1.361       .  A
N224        C226   1.363       .  A
N224        C376   1.449       .  S
C226        H227   1.081       .  S
O231        C247   1.270       .  A
O231       Zn237   1.973       .  S
C232        O248   1.273       .  A
C232        O857   1.273       .  A
C232        C313   1.482       .  S
O233        C858   1.273   1_554  A
O233       Cd240   2.062       .  S
O234        C252   1.269       .  A
O234       Cd243   2.030       .  S
O235        C249   1.273       .  A
O235       Cd239   2.073       .  S
O236        C247   1.270       .  A
O236       Cd239   2.034       .  S
Zn237       O248   2.013       .  S
Zn237       O250   2.020       .  S
Zn237       O242   1.935       .  S
O238        C861   1.272   1_554  A
O238       Cd243   2.065       .  S
Cd239       O241   2.080       .  S
Cd239       O242   1.996       .  S
Cd240       O244   2.052       .  S
Cd240       O253   2.034       .  S
Cd240       O854   1.985   1_554  S
O241        C251   1.275       .  A
O242       Cd852   1.985       .  S
O242       Cd855   1.985       .  S
Cd243       O245   2.058       .  S
Cd243       O854   1.985   1_554  S
O244        C863   1.273   1_554  A
O245        C844   1.273   1_554  A
C246        O250   1.273       .  A
C246        O845   1.273       .  A
C246        C361   1.486       .  S
C247        C274   1.430       .  S
C249        O850   1.272       .  A
C249        C601   1.468       .  S
C251        O856   1.273       .  A
C251        C496   1.487       .  S
C252        O253   1.269       .  A
C252        C255   1.431       .  S
O254        C270   1.272       .  A
O254       Zn260   2.007       .  S
C255        O271   1.270       .  A
C255        O268   1.269       .  A
O256        C269   1.273       .  A
O256       Cd263   2.054       .  S
O257        C275   1.271       .  A
O257       Cd266   2.053       .  S
O258        C272   1.275       .  A
O258       Cd262   2.068       .  S
O259        C270   1.275       .  A
O259       Cd262   2.073       .  S
Zn260       O271   1.982       .  S
Zn260       O273   2.021       .  S
Zn260       O265   1.936       .  S
O261        C272   1.272       .  A
O261       Cd266   2.062       .  S
Cd262       O264   2.033       .  S
Cd262       O265   1.989       .  S
Cd263       O267   2.032       .  S
Cd263       O276   2.073       .  S
Cd263       O265   1.987       .  S
O264        C274   1.270       .  A
O265       Cd266   1.985       .  S
Cd266       O268   2.025       .  S
O267        C274   1.270       .  A
C269        O273   1.273       .  A
C269        C280   1.485       .  S
C270        C328   1.488       .  S
C272        C436   1.486       .  S
C275        O276   1.274       .  A
C275        C541   1.485       .  S
C277        C278   1.402       .  A
C277        C282   1.409       .  A
C278        C279   1.392       .  A
C278        H283   1.083       .  S
C279        C280   1.412       .  A
C279        O284   1.372       .  S
C280        C281   1.410       .  A
C281        C282   1.404       .  A
C281        H285   1.083       .  S
C282        O286   1.371       .  S
O284        H288   0.991       .  S
O286        H287   0.991       .  S
C289        C290   1.406       .  A
C289        C294   1.415       .  A
C290        C291   1.408       .  A
C290        H295   1.080       .  S
C291        C292   1.417       .  A
C291        O296   1.375       .  S
C292        C293   1.407       .  A
C293        C294   1.409       .  A
C293        H297   1.081       .  S
C294        O298   1.375       .  S
O296        H300   0.992       .  S
O298        H299   0.992       .  S
C301        C302   1.408       .  A
C301        C306   1.414       .  A
C302        C303   1.407       .  A
C302        H307   1.080       .  S
C303        C304   1.414       .  A
C303        O308   1.374       .  S
C304        C305   1.408       .  A
C305        C306   1.407       .  A
C305        H309   1.082       .  S
C306        O310   1.375       .  S
O308        H312   0.992       .  S
O310        H311   0.992       .  S
C313        C314   1.408       .  A
C313        C930   1.413       .  A
C314        C315   1.400       .  A
C314        H319   1.083       .  S
C315        C316   1.403       .  A
C315        O320   1.371       .  S
C316        C929   1.399       .  A
C317        C318   1.397       .  A
C317        C928   1.399   1_554  A
C317        H321   1.083       .  S
C318        C925   1.413   1_554  A
C318        O322   1.372       .  S
O320        H324   0.991       .  S
O322        H323   0.993       .  S
C325        C326   1.401       .  A
C325        C330   1.410       .  A
C326        C327   1.398       .  A
C326        H331   1.083       .  S
C327        C328   1.415       .  A
C327        O332   1.371       .  S
C328        C329   1.407       .  A
C329        C330   1.400       .  A
C329        H333   1.083       .  S
C330        O334   1.372       .  S
O332        H336   0.992       .  S
O334        H335   0.992       .  S
C337        C338   1.411       .  A
C337        C342   1.411       .  A
C338        C339   1.410       .  A
C338        H343   1.080       .  S
C339        C340   1.412       .  A
C339        O344   1.375       .  S
C340        C341   1.411       .  A
C341        C342   1.406       .  A
C341        H345   1.080       .  S
C342        O346   1.375       .  S
O344        H348   0.992       .  S
O346        H347   0.992       .  S
C349        C350   1.408       .  A
C349        C354   1.414       .  A
C350        C351   1.408       .  A
C350        H355   1.080       .  S
C351        C352   1.414       .  A
C351        O356   1.375       .  S
C352        C353   1.409       .  A
C353        C354   1.404       .  A
C353        H357   1.080       .  S
C354        O358   1.371       .  S
O356        H360   0.992       .  S
O358        H359   0.991       .  S
C361        C362   1.405       .  A
C361        C366   1.412       .  A
C362        C363   1.399       .  A
C362        H367   1.083       .  S
C363        C364   1.413       .  A
C363        O368   1.371       .  S
C364        C365   1.406       .  A
C365        C366   1.400       .  A
C365        H369   1.082       .  S
C366        O370   1.371       .  S
O368        H372   0.991       .  S
O370        H983   0.992       .  S
H371        O982   0.992       .  S
C373        C374   1.403       .  A
C373        C378   1.408       .  A
C374        C375   1.399       .  A
C374        H379   1.084       .  S
C375        C376   1.417       .  A
C375        O380   1.370       .  S
C376        C377   1.408       .  A
C377        C378   1.399       .  A
C377        H381   1.081       .  S
C378        O382   1.372       .  S
O380        H384   0.991       .  S
O382        H383   0.991       .  S
C385        C386   1.406       .  A
C385        C390   1.413       .  A
C386        C387   1.398       .  A
C386        H391   1.083       .  S
C387        C388   1.411       .  A
C387        O392   1.371       .  S
C388        C389   1.405       .  A
C389        C390   1.402       .  A
C389        H393   1.083       .  S
C390        O394   1.372       .  S
O392        H396   0.992       .  S
O394        H395   0.992       .  S
C397        C402   1.414       .  A
C397       C1010   1.407       .  A
C398        C399   1.398       .  A
C398       C1009   1.407   1_554  A
C398        H403   1.083       .  S
C399       C1012   1.408   1_554  A
C399        O404   1.371       .  S
C400        C401   1.402       .  A
C400       C1011   1.408       .  A
C401        C402   1.398       .  A
C401        H405   1.083       .  S
C402        O406   1.371       .  S
O404        H408   0.991       .  S
O406        H407   0.993       .  S
C409        C414   1.414       .  A
C409       C1022   1.407       .  A
C410        C411   1.398       .  A
C410       C1021   1.407   1_554  A
C410        H415   1.083       .  S
C411       C1024   1.406   1_554  A
C411        O416   1.372       .  S
C412        C413   1.402       .  A
C412       C1023   1.406       .  A
C413        C414   1.401       .  A
C413        H417   1.083       .  S
C414        O418   1.371       .  S
O416        H420   0.991       .  S
O418        H419   0.992       .  S
C421        C422   1.405   1_545  A
C421        C426   1.407       .  A
C422        C423   1.405       .  A
C422        H427   1.083       .  S
C423        C424   1.410       .  A
C423        O428   1.371       .  S
C424        C425   1.401       .  A
C425        C426   1.394   1_565  A
C425        H429   1.083       .  S
C426        O430   1.371       .  S
O428        H432   0.991       .  S
O430        H431   0.992       .  S
C433        C434   1.404       .  A
C433        C438   1.410       .  A
C434        C435   1.403       .  A
C434        H439   1.083       .  S
C435        C436   1.415       .  A
C435        O440   1.372       .  S
C436        C437   1.405       .  A
C437        C438   1.395       .  A
C437        H441   1.083       .  S
C438        O442   1.371       .  S
O440        H444   0.992       .  S
O442        H443   0.992       .  S
C445        C446   1.404       .  A
C445        C450   1.413       .  A
C446        C447   1.394       .  A
C446        H451   1.082       .  S
C447        C448   1.411       .  A
C447        O452   1.372       .  S
C448        C449   1.407       .  A
C449        C450   1.406       .  A
C449        H453   1.083       .  S
C450        O454   1.372       .  S
O452        H456   0.992       .  S
O454        H455   0.992       .  S
C457        C462   1.409       .  A
C457       C1070   1.402       .  A
C458        C459   1.397   1_565  A
C458       C1069   1.402   1_554  A
C458        H463   1.083   1_565  S
C459       C1072   1.410   1_554  A
C459        O464   1.371       .  S
C460        C461   1.402   1_545  A
C460       C1071   1.410       .  A
C461        C462   1.399       .  A
C461        H465   1.083       .  S
C462        O466   1.371       .  S
O464        H468   0.992       .  S
O466        H467   0.992       .  S
C469        C470   1.406       .  A
C469        C474   1.417       .  A
C470        C471   1.408       .  A
C470        H475   1.081       .  S
C471        C472   1.416       .  A
C471        O476   1.374       .  S
C472        C473   1.407       .  A
C473        C474   1.409       .  A
C473        H477   1.082       .  S
C474        O478   1.375       .  S
O476        H480   0.992       .  S
O478        H479   0.992       .  S
C481        C482   1.409       .  A
C481        C486   1.415       .  A
C482        C483   1.404       .  A
C482        H487   1.080       .  S
C483        C484   1.413       .  A
C483        O488   1.370       .  S
C484        C485   1.408       .  A
C485        C486   1.408       .  A
C485        H489   1.082       .  S
C486        O490   1.375       .  S
O488        H492   0.992       .  S
O490        H491   0.992       .  S
C493        C494   1.401       .  A
C493       C1110   1.404       .  A
C494        C495   1.403       .  A
C494        H499   1.083       .  S
C495        C496   1.415       .  A
C495        O500   1.371       .  S
C496       C1109   1.408       .  A
C497        C498   1.394       .  A
C497       C1108   1.408   1_554  A
C497        H501   1.083       .  S
C498       C1105   1.404       .  A
C498        O502   1.371       .  S
O500        H504   0.992       .  S
O502        H503   0.993       .  S
C505        C506   1.404       .  A
C505        C510   1.410       .  A
C506        C507   1.401       .  A
C506        H511   1.083       .  S
C507        C508   1.413       .  A
C507        O512   1.371       .  S
C508        C509   1.406       .  A
C509        C510   1.397       .  A
C509        H513   1.083       .  S
C510        O514   1.371       .  S
O512        H516   0.992       .  S
O514        H515   0.992       .  S
C517        C518   1.402       .  A
C517        C522   1.409       .  A
C518        C519   1.401       .  A
C518        H523   1.083       .  S
C519        C520   1.415   1_655  A
C519        O524   1.371       .  S
C520        C521   1.405       .  A
C521        C522   1.401   1_455  A
C521        H525   1.083       .  S
C522        O526   1.372       .  S
O524        H528   0.992   1_655  S
O526        H527   0.992       .  S
C529        C530   1.408       .  A
C529        C534   1.414       .  A
C530        C531   1.397       .  A
C530        H535   1.083       .  S
C531        C532   1.406       .  A
C531        O536   1.371       .  S
C532        C533   1.401       .  A
C533        C534   1.400       .  A
C533        H537   1.083       .  S
C534        O538   1.371       .  S
O536        H540   0.992       .  S
O538        H539   0.991       .  S
C541        C542   1.406       .  A
C541        C546   1.414       .  A
C542        C543   1.400       .  A
C542        H547   1.083       .  S
C543        C544   1.411       .  A
C543        O548   1.371       .  S
C544        C545   1.401       .  A
C545        C546   1.398       .  A
C545        H549   1.083       .  S
C546        O550   1.372       .  S
O548        H552   0.992       .  S
O550        H551   0.992       .  S
C553        C554   1.406       .  A
C553       C1170   1.410   1_455  A
C554        C555   1.398   1_455  A
C554        H559   1.082       .  S
C555        C556   1.407       .  A
C555        O560   1.372   1_655  S
C556       C1169   1.402       .  A
C557        C558   1.399       .  A
C557       C1168   1.402   1_554  A
C557        H561   1.083       .  S
C558       C1165   1.410   1_654  A
C558        O562   1.372       .  S
O560        H564   0.992   1_455  S
O562        H563   0.992       .  S
C565        C566   1.408       .  A
C565        C570   1.414       .  A
C566        C567   1.406       .  A
C566        H571   1.081       .  S
C567        C568   1.414       .  A
C567        O572   1.375       .  S
C568        C569   1.408       .  A
C569        C570   1.406       .  A
C569        H573   1.081       .  S
C570        O574   1.375       .  S
O572        H576   0.992       .  S
O574        H575   0.992       .  S
C577        C578   1.409       .  A
C577        C582   1.417       .  A
C578        C579   1.404       .  A
C578        H583   1.080       .  S
C579        C580   1.414       .  A
C579        O584   1.370       .  S
C580        C581   1.407       .  A
C581        C582   1.408       .  A
C581        H585   1.082       .  S
C582        O586   1.375       .  S
O584        H588   0.992       .  S
O586        H587   0.992       .  S
C589        C590   1.407       .  A
C589       C1206   1.416       .  A
C590        C591   1.397       .  A
C590        H595   1.083       .  S
C591        C592   1.406       .  A
C591        O596   1.371       .  S
C592       C1205   1.400       .  A
C592        N629   1.434       .  S
C593        C594   1.399       .  A
C593       C1204   1.400       .  A
C593        H597   1.083       .  S
C594       C1201   1.416       .  A
C594        O598   1.372       .  S
O596        H600   0.992       .  S
O598        H599   0.992       .  S
C601        C606   1.403       .  A
C601       C1214   1.399       .  A
C602        C603   1.401       .  A
C602       C1213   1.399   1_554  A
C602        H607   1.084       .  S
C603        C604   1.414       .  A
C603        O608   1.371       .  S
C604       C1217   1.410   1_554  A
C605        C606   1.399       .  A
C605       C1216   1.410       .  A
C605        H609   1.082       .  S
C606        O610   1.372       .  S
O608        H612   0.992       .  S
O610        H611   0.991       .  S
C613        C615   1.535       .  S
C613        C617   1.542       .  S
C613        C616   1.545       .  S
C613       C1189   1.542       .  S
C614        C618   1.541       .  S
C614        C620   1.531       .  S
C614        C619   1.540       .  S
C614       C1180   1.538       .  S
C615        C623   1.375       .  A
C616        C627   1.377       .  A
C617        C631   1.378       .  A
C618        C621   1.377       .  A
C619        C625   1.375       .  A
C620        C628   1.373       .  A
C621        H634   1.081       .  S
N622        C623   1.361       .  A
N622       C1216   1.446       .  S
C623        H624   1.080       .  S
C625        H635   1.081       .  S
C625        N626   1.356       .  A
N626       C1168   1.435       .  S
C627        H633   1.081       .  S
C628        H630   1.083       .  S
N629        C631   1.358       .  A
C631        H632   1.081       .  S
C636        C638   1.541       .  S
C636        C640   1.536       .  S
C636        C639   1.545       .  S
C636       C1192   1.541       .  S
C637        C641   1.531       .  S
C637        C643   1.540       .  S
C637        C642   1.544       .  S
C637       C1177   1.538       .  S
C638        C646   1.378       .  A
C638        C641   1.396       .  A
C639        C650   1.380       .  A
C639        C642   1.397       .  A
C640        C654   1.376       .  A
C640        C643   1.396       .  A
C641        C644   1.375       .  A
C642        C648   1.378       .  A
C643        C651   1.377       .  A
C644        H657   1.083       .  S
C644        N645   1.356       .  A
N645        C646   1.358       .  A
N645       C1144   1.435       .  S
C646        H647   1.081       .  S
C648        H658   1.081       .  S
C648        N649   1.357       .  A
N649        C650   1.358       .  A
N649       C1129   1.441       .  S
C650        H656   1.082       .  S
C651        H653   1.081       .  S
C651        N652   1.357       .  A
N652        C654   1.359       .  A
N652       C1156   1.439       .  S
C654        H655   1.082       .  S
C659        C661   1.546       .  S
C659        C663   1.541       .  S
C659        C662   1.529       .  S
C659       C1081   1.541       .  S
C660        C664   1.545       .  S
C660        C666   1.546       .  S
C660        C665   1.530       .  S
C660       C1093   1.541       .  S
C661        C669   1.379       .  A
C662        C673   1.373       .  A
C663        C677   1.377       .  A
C664        C667   1.378       .  A
C665        C671   1.375       .  A
C666        C674   1.380       .  A
C667        H680   1.081       .  S
N668        C669   1.359   1_554  A
N668       C1117   1.442       .  S
C669        H670   1.081       .  S
C671        H681   1.083       .  S
N672        C673   1.358       .  A
N672       C1069   1.436       .  S
C673        H679   1.082       .  S
C674        H676   1.081       .  S
N675        C677   1.353   1_554  A
N675       C1105   1.433       .  S
C677        H678   1.081       .  S
C682        C684   1.543       .  S
C682        C686   1.548       .  S
C682        C685   1.529       .  S
C682       C1096   1.540       .  S
C683        C687   1.543       .  S
C683        C689   1.542       .  S
C683        C688   1.535       .  S
C683       C1084   1.542       .  S
C684        C692   1.381       .  A
C684        C687   1.398       .  A
C685        C696   1.372       .  A
C685        C688   1.390       .  A
C686        C700   1.380       .  A
C686        C689   1.401       .  A
C687        C690   1.377       .  A
C688        C694   1.379       .  A
C689        C697   1.375       .  A
C690        H703   1.081       .  S
C690        N691   1.358       .  A
N691        C692   1.357       .  A
N691       C1057   1.444       .  S
C692        H693   1.079       .  S
C694        H704   1.082       .  S
C694        N695   1.360       .  A
N695        C696   1.359       .  A
N695       C1036   1.437       .  S
C696        H702   1.083       .  S
C697        H699   1.081       .  S
C697        N698   1.358       .  A
N698        C700   1.358       .  A
N698       C1045   1.440       .  S
C700        H701   1.081       .  S
O705        C721   1.273       .  A
O705       Zn711   2.020       .  S
C706        O722   1.271       .  A
C706        O719   1.270   1_665  A
C706        C748   1.432       .  S
O707       Cd714   2.056       .  S
O708        C726   1.272       .  A
O708       Cd717   2.061       .  S
O709       Cd713   2.067       .  S
O710       Cd713   2.057   1_565  S
Zn711       O722   1.989       .  S
Zn711       O724   2.021   1_655  S
Zn711       O716   1.938       .  S
O712        C723   1.272       .  A
O712       Cd717   2.059   1_655  S
Cd713       O715   2.033       .  S
Cd714       O718   2.027       .  S
Cd714       O727   2.064   1_565  S
O715        C725   1.269   1_545  A
O716       Cd717   1.983   1_665  S
Cd717       O719   2.025       .  S
O718        C725   1.269   1_455  A
C720        O724   1.273       .  A
C720       C1021   1.487       .  S
C721       C1120   1.486       .  S
C723       C1201   1.485       .  S
C725        C729   1.430       .  S
C726       C1009   1.486       .  S
O728        C744   1.274       .  A
O728       Zn734   2.029       .  S
C729        O745   1.271       .  A
C729        O742   1.270   1_665  A
O730        C743   1.274       .  A
O730       Cd737   2.067       .  S
O731        C749   1.272       .  A
O731       Cd740   2.061       .  S
O732        C746   1.273       .  A
O732       Cd736   2.070       .  S
O733        C744   1.273       .  A
O733       Cd736   2.054   1_565  S
Zn734       O745   1.981       .  S
Zn734       O747   2.022   1_655  S
Zn734       O739   1.941       .  S
O735        C746   1.273       .  A
O735       Cd740   2.060   1_655  S
Cd736       O738   2.031       .  S
Cd736       O739   1.985   1_545  S
Cd737       O741   2.034       .  S
Cd737       O750   2.070   1_565  S
Cd737       O739   1.988   1_455  S
O738        C748   1.269   1_545  A
O739       Cd740   1.989   1_665  S
Cd740       O742   2.028       .  S
O741        C748   1.270   1_455  A
C743        O747   1.274       .  A
C743        C997   1.488       .  S
C744       C1060   1.485       .  S
C746       C1141   1.487       .  S
C749        O750   1.274       .  A
C749        C985   1.480       .  S
C751        C753   1.534       .  S
C751        C755   1.545       .  S
C751        C754   1.545       .  S
C751        C949   1.543       .  S
C752        C756   1.543       .  S
C752        C758   1.531       .  S
C752        C757   1.541       .  S
C752        C961   1.541       .  S
C753        C761   1.376       .  A
C754        C765   1.377       .  A
C755        C769   1.380       .  A
C756        C759   1.379       .  A
C757        C763   1.377       .  A
C758        C766   1.373       .  A
C759        H772   1.081       .  S
N760        C761   1.356       .  A
N760       C1024   1.437       .  S
C761        H762   1.082       .  S
C763        H773   1.080       .  S
N764        C765   1.357       .  A
N764       C1165   1.440       .  S
C765        H771   1.081       .  S
C766        H768   1.081       .  S
N767        C769   1.362       .  A
N767        C976   1.446       .  S
C769        H770   1.080       .  S
C774        C776   1.542       .  S
C774        C778   1.533       .  S
C774        C777   1.548       .  S
C774        C964   1.541       .  S
C775        C779   1.533       .  S
C775        C781   1.542       .  S
C775        C780   1.548       .  S
C775        C952   1.544       .  S
C776        C784   1.379       .  A
C776        C779   1.393       .  A
C777        C788   1.379       .  A
C777        C780   1.401       .  A
C778        C792   1.377       .  A
C778        C781   1.395       .  A
C779        C782   1.374       .  A
C780        C786   1.381       .  A
C781        C789   1.380       .  A
C782        H795   1.082       .  S
C782        N783   1.360       .  A
N783        C784   1.360       .  A
N783       C1000   1.444       .  S
C784        H785   1.081       .  S
C786        H796   1.080       .  S
C786        N787   1.361       .  A
N787        C788   1.358       .  A
N787       C1132   1.446       .  S
C788        H794   1.079       .  S
C789        H791   1.082       .  S
C789        N790   1.355       .  A
N790        C792   1.358       .  A
N790        C937   1.439       .  S
C792        H793   1.082       .  S
C797        C799   1.531       .  S
C797        C801   1.541       .  S
C797        C800   1.539       .  S
C797        C913   1.540       .  S
C798        C802   1.546       .  S
C798        C804   1.543       .  S
C798        C803   1.537       .  S
C798        C901   1.542       .  S
C799        C807   1.373       .  A
C800        C811   1.375       .  A
C801        C815   1.378       .  A
C802        C805   1.381       .  A
C803        C809   1.378       .  A
C804        C812   1.376       .  A
C805        H818   1.081       .  S
C805        N806   1.356       .  A
N806        C928   1.431       .  S
C807        H808   1.083       .  S
C809        H819   1.082       .  S
C809        N810   1.359       .  A
N810       C1072   1.436       .  S
C811        H817   1.081       .  S
C812        H814   1.081       .  S
C812        N813   1.356       .  A
N813       C1012   1.438       .  S
C815        H816   1.081       .  S
C820        C822   1.539       .  S
C820        C824   1.546       .  S
C820        C823   1.535       .  S
C820        C904   1.540       .  S
C821        C825   1.534       .  S
C821        C827   1.544       .  S
C821        C826   1.539       .  S
C821        C916   1.538       .  S
C822        C830   1.373       .  A
C822        C825   1.393       .  A
C823        C834   1.379       .  A
C823        C826   1.395       .  A
C824        C838   1.378       .  A
C824        C827   1.397       .  A
C825        C828   1.378       .  A
C826        C832   1.376       .  A
C827        C835   1.375       .  A
C828        H841   1.082       .  S
C828        N829   1.359       .  A
N829        C830   1.358       .  A
N829        C889   1.439       .  S
C830        H831   1.081       .  S
C832        H842   1.081       .  S
C832        N833   1.357       .  A
N833        C834   1.357       .  A
N833       C1033   1.437       .  S
C834        H840   1.082       .  S
C835        H837   1.079       .  S
C835        N836   1.361       .  A
N836        C838   1.363       .  A
N836        C988   1.449       .  S
C838        H839   1.081       .  S
O843        C859   1.270       .  A
O843       Zn849   1.973       .  S
C844        O860   1.273       .  A
C844        C925   1.482       .  S
O845       Cd852   2.062       .  S
O846        C864   1.269       .  A
O846       Cd855   2.030       .  S
O847        C861   1.273       .  A
O847       Cd851   2.073       .  S
O848        C859   1.270       .  A
O848       Cd851   2.034       .  S
Zn849       O860   2.014       .  S
Zn849       O862   2.020       .  S
Zn849       O854   1.935       .  S
O850       Cd855   2.065       .  S
Cd851       O853   2.080       .  S
Cd851       O854   1.996       .  S
Cd852       O856   2.052       .  S
Cd852       O865   2.034       .  S
O853        C863   1.275       .  A
Cd855       O857   2.058       .  S
C858        O862   1.273       .  A
C858        C973   1.486       .  S
C859        C886   1.431       .  S
C861       C1213   1.468       .  S
C863       C1108   1.487       .  S
C864        O865   1.269       .  A
C864        C867   1.431       .  S
O866        C882   1.272       .  A
O866       Zn872   2.007       .  S
C867        O883   1.270       .  A
C867        O880   1.269       .  A
O868        C881   1.273       .  A
O868       Cd875   2.054       .  S
O869        C887   1.271       .  A
O869       Cd878   2.053       .  S
O870        C884   1.275       .  A
O870       Cd874   2.068       .  S
O871        C882   1.275       .  A
O871       Cd874   2.073       .  S
Zn872       O883   1.982       .  S
Zn872       O885   2.021       .  S
Zn872       O877   1.936       .  S
O873        C884   1.272       .  A
O873       Cd878   2.062       .  S
Cd874       O876   2.033       .  S
Cd874       O877   1.989       .  S
Cd875       O879   2.032       .  S
Cd875       O888   2.073       .  S
Cd875       O877   1.987       .  S
O876        C886   1.270       .  A
O877       Cd878   1.985       .  S
Cd878       O880   2.025       .  S
O879        C886   1.270       .  A
C881        O885   1.273       .  A
C881        C892   1.485       .  S
C882        C940   1.488       .  S
C884       C1048   1.486       .  S
C887        O888   1.274       .  A
C887       C1153   1.485       .  S
C889        C890   1.402       .  A
C889        C894   1.409       .  A
C890        C891   1.392       .  A
C890        H895   1.083       .  S
C891        C892   1.412       .  A
C891        O896   1.372       .  S
C892        C893   1.410       .  A
C893        C894   1.404       .  A
C893        H897   1.083       .  S
C894        O898   1.371       .  S
O896        H900   0.991       .  S
O898        H899   0.991       .  S
C901        C902   1.406       .  A
C901        C906   1.415       .  A
C902        C903   1.408       .  A
C902        H907   1.080       .  S
C903        C904   1.417       .  A
C903        O908   1.375       .  S
C904        C905   1.407       .  A
C905        C906   1.409       .  A
C905        H909   1.081       .  S
C906        O910   1.375       .  S
O908        H912   0.992       .  S
O910        H911   0.992       .  S
C913        C914   1.408       .  A
C913        C918   1.414       .  A
C914        C915   1.407       .  A
C914        H919   1.080       .  S
C915        C916   1.414       .  A
C915        O920   1.374       .  S
C916        C917   1.408       .  A
C917        C918   1.407       .  A
C917        H921   1.082       .  S
C918        O922   1.375       .  S
O920        H924   0.992       .  S
O922        H923   0.992       .  S
C925        C926   1.408       .  A
C926        C927   1.400       .  A
C926        H931   1.083       .  S
C927        C928   1.403       .  A
C927        O932   1.371       .  S
C929        C930   1.397       .  A
C929        H933   1.083       .  S
C930        O934   1.372       .  S
O932        H936   0.991       .  S
O934        H935   0.993       .  S
C937        C938   1.401       .  A
C937        C942   1.410       .  A
C938        C939   1.398       .  A
C938        H943   1.083       .  S
C939        C940   1.415       .  A
C939        O944   1.371       .  S
C940        C941   1.407       .  A
C941        C942   1.400       .  A
C941        H945   1.083       .  S
C942        O946   1.372       .  S
O944        H948   0.992       .  S
O946        H947   0.992       .  S
C949        C950   1.411       .  A
C949        C954   1.411       .  A
C950        C951   1.410       .  A
C950        H955   1.080       .  S
C951        C952   1.412       .  A
C951        O956   1.375       .  S
C952        C953   1.411       .  A
C953        C954   1.406       .  A
C953        H957   1.080       .  S
C954        O958   1.375       .  S
O956        H960   0.992       .  S
O958        H959   0.992       .  S
C961        C962   1.408       .  A
C961        C966   1.414       .  A
C962        C963   1.408       .  A
C962        H967   1.080       .  S
C963        C964   1.414       .  A
C963        O968   1.375       .  S
C964        C965   1.409       .  A
C965        C966   1.404       .  A
C965        H969   1.080       .  S
C966        O970   1.371       .  S
O968        H972   0.992       .  S
O970        H971   0.991       .  S
C973        C974   1.405   1_556  A
C973        C978   1.412       .  A
C974        C975   1.399       .  A
C974        H979   1.083       .  S
C975        C976   1.413   1_554  A
C975        O980   1.371       .  S
C976        C977   1.406       .  A
C977        C978   1.400       .  A
C977        H981   1.082       .  S
C978        O982   1.371       .  S
O980        H984   0.991       .  S
C985        C986   1.403       .  A
C985        C990   1.408       .  A
C986        C987   1.399       .  A
C986        H991   1.084       .  S
C987        C988   1.417       .  A
C987        O992   1.370       .  S
C988        C989   1.408       .  A
C989        C990   1.399       .  A
C989        H993   1.081       .  S
C990        O994   1.372       .  S
O992        H996   0.991       .  S
O994        H995   0.991       .  S
C997        C998   1.406       .  A
C997       C1002   1.413       .  A
C998        C999   1.398       .  A
C998       H1003   1.083       .  S
C999       C1000   1.411       .  A
C999       O1004   1.371       .  S
C1000      C1001   1.405       .  A
C1001      C1002   1.402       .  A
C1001      H1005   1.083       .  S
C1002      O1006   1.371       .  S
O1004      H1008   0.992       .  S
O1006      H1007   0.992       .  S
C1009      C1014   1.414       .  A
C1010      C1011   1.398       .  A
C1010      H1015   1.083       .  S
C1011      O1016   1.371       .  S
C1012      C1013   1.402       .  A
C1013      C1014   1.398       .  A
C1013      H1017   1.083       .  S
C1014      O1018   1.371       .  S
O1016      H1020   0.991       .  S
O1018      H1019   0.993       .  S
C1021      C1026   1.414       .  A
C1022      C1023   1.398       .  A
C1022      H1027   1.083       .  S
C1023      O1028   1.372       .  S
C1024      C1025   1.402       .  A
C1025      C1026   1.401       .  A
C1025      H1029   1.083       .  S
C1026      O1030   1.371       .  S
O1028      H1032   0.991       .  S
O1030      H1031   0.992       .  S
C1033      C1034   1.405   1_545  A
C1033      C1038   1.407       .  A
C1034      C1035   1.405       .  A
C1034      H1039   1.083       .  S
C1035      C1036   1.410       .  A
C1035      O1040   1.371       .  S
C1036      C1037   1.401       .  A
C1037      C1038   1.394   1_565  A
C1037      H1041   1.083       .  S
C1038      O1042   1.371       .  S
O1040      H1044   0.991       .  S
O1042      H1043   0.992       .  S
C1045      C1046   1.404       .  A
C1045      C1050   1.410       .  A
C1046      C1047   1.403       .  A
C1046      H1051   1.083       .  S
C1047      C1048   1.415       .  A
C1047      O1052   1.372       .  S
C1048      C1049   1.405       .  A
C1049      C1050   1.395       .  A
C1049      H1053   1.083       .  S
C1050      O1054   1.371       .  S
O1052      H1056   0.992       .  S
O1054      H1055   0.992       .  S
C1057      C1058   1.404       .  A
C1057      C1062   1.413       .  A
C1058      C1059   1.394       .  A
C1058      H1063   1.082       .  S
C1059      C1060   1.411       .  A
C1059      O1064   1.372       .  S
C1060      C1061   1.407       .  A
C1061      C1062   1.406       .  A
C1061      H1065   1.083       .  S
C1062      O1066   1.372       .  S
O1064      H1068   0.992       .  S
O1066      H1067   0.992       .  S
C1069      C1074   1.409       .  A
C1070      C1071   1.397   1_565  A
C1070      H1075   1.083   1_565  S
C1071      O1076   1.371       .  S
C1072      C1073   1.402   1_545  A
C1073      C1074   1.399       .  A
C1073      H1077   1.083       .  S
C1074      O1078   1.371       .  S
O1076      H1080   0.992       .  S
O1078      H1079   0.992       .  S
C1081      C1082   1.406       .  A
C1081      C1086   1.417       .  A
C1082      C1083   1.408       .  A
C1082      H1087   1.081       .  S
C1083      C1084   1.416       .  A
C1083      O1088   1.374       .  S
C1084      C1085   1.407       .  A
C1085      C1086   1.409       .  A
C1085      H1089   1.082       .  S
C1086      O1090   1.375       .  S
O1088      H1092   0.992       .  S
O1090      H1091   0.992       .  S
C1093      C1094   1.409       .  A
C1093      C1098   1.415       .  A
C1094      C1095   1.404       .  A
C1094      H1099   1.080       .  S
C1095      C1096   1.413       .  A
C1095      O1100   1.370       .  S
C1096      C1097   1.408       .  A
C1097      C1098   1.408       .  A
C1097      H1101   1.082       .  S
C1098      O1102   1.375       .  S
O1100      H1104   0.992       .  S
O1102      H1103   0.992       .  S
C1105      C1106   1.401   1_554  A
C1106      C1107   1.403       .  A
C1106      H1111   1.083       .  S
C1107      C1108   1.415       .  A
C1107      O1112   1.371       .  S
C1109      C1110   1.394       .  A
C1109      H1113   1.083       .  S
C1110      O1114   1.371       .  S
O1112      H1116   0.992       .  S
O1114      H1115   0.993       .  S
C1117      C1118   1.404   1_554  A
C1117      C1122   1.410       .  A
C1118      C1119   1.401       .  A
C1118      H1123   1.083       .  S
C1119      C1120   1.413       .  A
C1119      O1124   1.371       .  S
C1120      C1121   1.406   1_556  A
C1121      C1122   1.397       .  A
C1121      H1125   1.083       .  S
C1122      O1126   1.371       .  S
O1124      H1128   0.992       .  S
O1126      H1127   0.992       .  S
C1129      C1130   1.402       .  A
C1129      C1134   1.409       .  A
C1130      C1131   1.401       .  A
C1130      H1135   1.083       .  S
C1131      C1132   1.415   1_655  A
C1131      O1136   1.371       .  S
C1132      C1133   1.405       .  A
C1133      C1134   1.401   1_455  A
C1133      H1137   1.083       .  S
C1134      O1138   1.372       .  S
O1136      H1140   0.992   1_655  S
O1138      H1139   0.992       .  S
C1141      C1142   1.408       .  A
C1141      C1146   1.414       .  A
C1142      C1143   1.397       .  A
C1142      H1147   1.083       .  S
C1143      C1144   1.406       .  A
C1143      O1148   1.371       .  S
C1144      C1145   1.401       .  A
C1145      C1146   1.400       .  A
C1145      H1149   1.083       .  S
C1146      O1150   1.371       .  S
O1148      H1152   0.992       .  S
O1150      H1151   0.991       .  S
C1153      C1154   1.406       .  A
C1153      C1158   1.414       .  A
C1154      C1155   1.400       .  A
C1154      H1159   1.083       .  S
C1155      C1156   1.411       .  A
C1155      O1160   1.371       .  S
C1156      C1157   1.401       .  A
C1157      C1158   1.398       .  A
C1157      H1161   1.083       .  S
C1158      O1162   1.372       .  S
O1160      H1164   0.992       .  S
O1162      H1163   0.992       .  S
C1165      C1166   1.406       .  A
C1166      C1167   1.398   1_455  A
C1166      H1171   1.082       .  S
C1167      C1168   1.407       .  A
C1167      O1172   1.372   1_655  S
C1169      C1170   1.399       .  A
C1169      H1173   1.083       .  S
C1170      O1174   1.372       .  S
O1172      H1176   0.992   1_455  S
O1174      H1175   0.992       .  S
C1177      C1178   1.408       .  A
C1177      C1182   1.414       .  A
C1178      C1179   1.406       .  A
C1178      H1183   1.081       .  S
C1179      C1180   1.414       .  A
C1179      O1184   1.375       .  S
C1180      C1181   1.408       .  A
C1181      C1182   1.406       .  A
C1181      H1185   1.081       .  S
C1182      O1186   1.375       .  S
O1184      H1188   0.992       .  S
O1186      H1187   0.992       .  S
C1189      C1190   1.409       .  A
C1189      C1194   1.417       .  A
C1190      C1191   1.404       .  A
C1190      H1195   1.080       .  S
C1191      C1192   1.414       .  A
C1191      O1196   1.370       .  S
C1192      C1193   1.407       .  A
C1193      C1194   1.408       .  A
C1193      H1197   1.082       .  S
C1194      O1198   1.375       .  S
O1196      H1200   0.992       .  S
O1198      H1199   0.992       .  S
C1201      C1202   1.407   1_556  A
C1202      C1203   1.397       .  A
C1202      H1207   1.083       .  S
C1203      C1204   1.406   1_554  A
C1203      O1208   1.371       .  S
C1205      C1206   1.399       .  A
C1205      H1209   1.083       .  S
C1206      O1210   1.372       .  S
O1208      H1212   0.992       .  S
O1210      H1211   0.992       .  S
C1213      C1218   1.403       .  A
C1214      C1215   1.401       .  A
C1214      H1219   1.084       .  S
C1215      C1216   1.414       .  A
C1215      O1220   1.371       .  S
C1217      C1218   1.399       .  A
C1217      H1221   1.082       .  S
C1218      O1222   1.372       .  S
O1220      H1224   0.992       .  S
O1222      H1223   0.991       .  S
