geometry optimzed in LAMMPS
_audit_creation_date              2020-11-30 
_audit_creation_method            'lammps2cif' 
_symmetry_space_group_name_H-M    'P1' 
_symmetry_Int_Tables_number       1 
_symmetry_cell_setting            triclinic 
loop_ 
_symmetry_equiv_pos_as_xyz 
  x,y,z 
_cell_length_a                    40.55695021 
_cell_length_b                    40.56027458345074 
_cell_length_c                    36.49809203633682 
_cell_angle_alpha                 89.98973465988834 
_cell_angle_beta                  90.01020531998202 
_cell_angle_gamma                 120.02248264858373 
loop_ 
_atom_site_label 
_atom_site_type_symbol 
_atom_site_fract_x 
_atom_site_fract_y 
_atom_site_fract_z 
_atom_site_charge 
C1          C  0.22059903  0.21430835  0.15739232     0.05100
C2          C  0.21951003  0.21447971  0.11893942    -0.11100
C3          C  0.25124019  0.24154760  0.09839023     0.02600
C4          C  0.28373482  0.26848911  0.11810022    -0.09600
C5          C  0.28382063  0.26957892  0.15639655     0.05000
C6          C  0.25247495  0.24227007  0.17598888    -0.09000
H7          H  0.19363709  0.19348616  0.10567081     0.10600
H8          H  0.30946047  0.28886732  0.10434564     0.08200
H9          H  0.25292120  0.24271569  0.20568872     0.08000
C10         C  0.22359702  0.21131414  0.99798826     0.05100
C11         C  0.22374211  0.21025339  0.03644379    -0.11100
C12         C  0.25076058  0.24201931  0.05698856     0.02600
C13         C  0.27766598  0.27452939  0.03727325    -0.09600
C14         C  0.27879644  0.27458692  0.99897820     0.05000
C15         C  0.25153126  0.24320153  0.47939102    -0.09000
H16         H  0.20276791  0.18437461  0.04971718     0.10600
H17         H  0.29799265  0.30028182  0.05102279     0.08200
H18         H  0.25199797  0.24362794  0.44969111     0.08000
C19         C  0.24844679  0.47579371  0.15735441     0.05100
C20         C  0.24998007  0.47820594  0.11897922    -0.11100
C21         C  0.21859007  0.47431973  0.09840903     0.02600
C22         C  0.18599134  0.46855204  0.11807493    -0.09600
C23         C  0.18543722  0.46838562  0.15641905     0.05000
C24         C  0.21642739  0.47147390  0.17598842    -0.09000
H25         H  0.27600276  0.48346462  0.10579320     0.10600
H26         H  0.16057603  0.46402519  0.10423174     0.08200
H27         H  0.21569649  0.47067333  0.20567754     0.08000
C28         C  0.24767869  0.47426256  0.99804760     0.05100
C29         C  0.24685713  0.47194352  0.03645085    -0.11100
C30         C  0.21967665  0.47640628  0.05703127     0.02600
C31         C  0.19321708  0.48273906  0.03736088    -0.09600
C32         C  0.19275704  0.48277018  0.99902412     0.05000
C33         C  0.22021983  0.47899259  0.47946503    -0.09000
H34         H  0.26739370  0.46634487  0.04962546     0.10600
H35         H  0.17266554  0.48778231  0.05118675     0.08200
H36         H  0.22021994  0.47971538  0.44977065     0.08000
C37         C  0.48349093  0.23857595  0.15726586     0.05100
C38         C  0.48112758  0.23770363  0.11886798    -0.11100
C39         C  0.48558107  0.21051134  0.09830575     0.02600
C40         C  0.49191095  0.18405915  0.11799574    -0.09600
C41         C  0.49199026  0.18365253  0.15633722     0.05000
C42         C  0.48827796  0.21117136  0.17586799    -0.09000
H43         H  0.47550781  0.25822186  0.10568168     0.10600
H44         H  0.49692058  0.16348821  0.10418981     0.07400
H45         H  0.48904781  0.21122183  0.20556217     0.08000
C46         C  0.48496982  0.23928236  0.99798046     0.05100
C47         C  0.48738432  0.24081086  0.03635518    -0.11100
C48         C  0.48350359  0.20942369  0.05692528     0.02600
C49         C  0.47775890  0.17683639  0.03725619    -0.09600
C50         C  0.47758798  0.17628755  0.99890892     0.05000
C51         C  0.48069691  0.20730080  0.47935447    -0.09000
H52         H  0.49264269  0.26683384  0.04954032     0.10600
H53         H  0.47325629  0.15143801  0.05109197     0.08200
H54         H  0.47990119  0.20657882  0.44966421     0.08000
O55         O  0.01729545  0.39225304  0.36942279    -0.86300
C56         C  0.09493292  0.08675781  0.27440092     1.13800
O57         O  0.48520873  0.43627953  0.32765191    -1.34100
O58         O  0.10274124  0.06118133  0.36676472    -0.87700
O59         O  0.45339578  0.36038365  0.36994343    -0.88400
O60         O  0.44606531  0.43685045  0.40427762    -0.77200
O61         O  0.06136749  0.47671157  0.36175357    -0.99300
C62         C  0.48381383  0.04389336  0.39533798     1.23800
O63         O  0.44543961  0.47603735  0.32767215    -1.34200
Mn64       Mn  0.48516867  0.47619761  0.28829860     1.82100
O65         O  0.48484796  0.01477001  0.40462324    -0.76300
O66         O  0.06906446  0.09117885  0.37068306    -0.85700
C67         C  0.48664647  0.04603473  0.26099088     1.14900
C68         C  0.09594163  0.08576194  0.38095374     1.09600
O69         O  0.44604379  0.43693660  0.25103580    -0.77200
O70         O  0.02501478  0.01585160  0.32767360    -1.30900
O71         O  0.40998203  0.40022596  0.29298910    -0.96500
C72         C  0.37399373  0.47541471  0.37988837     1.08400
Mn73       Mn  0.02800093  0.06993636  0.32892228     1.48600
O74         O  0.36804910  0.44369030  0.36742332    -0.85600
Mn75       Mn  0.43403736  0.38215784  0.32828503     1.49600
O76         O  0.01670176  0.39082710  0.28722620    -0.89500
C77         C  0.05517080  0.47745968  0.39435724     1.21500
C78         C  0.48463512  0.36488975  0.27538908     1.13600
Mn79       Mn  0.48534368  0.47599222  0.36703258     1.81000
O80         O  0.48588607  0.05220871  0.29359715    -0.94700
Mn81       Mn  0.03628621  0.43323539  0.32775897     1.49300
C82         C  0.48544803  0.36676139  0.38208989     1.10100
Mn83       Mn  0.44239032  0.02710686  0.32757137     1.49900
C84         C  0.37595125  0.47627217  0.27320679     1.13000
O85         O  0.40937611  0.40078096  0.36231451    -1.00500
O86         O  0.07036027  0.09357321  0.28858825    -0.90100
C87         C  0.41588487  0.40777876  0.39486051     1.24300
O88         O  0.48451549  0.05100672  0.36282894    -1.00900
O89         O  0.10034232  0.05988148  0.28467681    -0.88300
O90         O  0.40142440  0.00811642  0.28589150    -0.87900
O91         O  0.45289945  0.35892339  0.28785130    -0.87900
Mn92       Mn  0.07910007  0.01882936  0.32643026     1.47900
O93         O  0.48569208  0.01596829  0.25133242    -0.76400
C94         C  0.41698540  0.40674306  0.26044595     1.17400
O95         O  0.02510094  0.47650816  0.40400363    -0.75100
O96         O  0.02395161  0.47571703  0.25071557    -0.74700
Mn97       Mn  0.39132620  0.42485488  0.32701120     1.51100
O98         O  0.39994728  0.00749043  0.36808163    -0.87100
O99         O  0.06018047  0.47535998  0.29251041    -0.94600
O100        O  0.36957818  0.44422224  0.28534436    -0.89600
C101        C  0.05306633  0.47466448  0.26000039     1.15200
C102        C  0.47579172  0.14441032  0.47958123    -0.16600
C103        C  0.47641426  0.11905847  0.46285161     0.07500
C104        C  0.47874541  0.09099178  0.44187210     0.09300
C105        C  0.48123921  0.06855058  0.42201690    -0.17400
C106        C  0.48670826  0.27049007  0.47739214    -0.16600
C107        C  0.48689388  0.29489358  0.45830789     0.07500
C108        C  0.48634860  0.32165535  0.43384302     0.09300
C109        C  0.48577340  0.34302766  0.41116946    -0.17400
C110        C  0.49433221  0.15393321  0.17579783    -0.16600
C111        C  0.49400437  0.12833979  0.19297002     0.07500
C112        C  0.49181231  0.09831747  0.21448677     0.09300
C113        C  0.48930241  0.07349407  0.23452713    -0.17400
C114        C  0.48161004  0.26784170  0.17809536    -0.16600
C115        C  0.48170858  0.29166706  0.19800740     0.07500
C116        C  0.48292528  0.31852681  0.22351161     0.09300
C117        C  0.48406535  0.34038884  0.24660947    -0.17400
C118        C  0.27688103  0.47231027  0.47717533    -0.16600
C119        C  0.30068663  0.47240625  0.45723227     0.07500
C120        C  0.32755219  0.47364622  0.43171726     0.09300
C121        C  0.34944555  0.47481764  0.40863572    -0.17400
C122        C  0.08260489  0.48009402  0.42083764    -0.16600
C123        C  0.10740416  0.48258768  0.44090223     0.07500
C124        C  0.13741164  0.48477002  0.46243360     0.09300
C125        C  0.16301075  0.48509842  0.47959506    -0.17400
C126        C  0.27961480  0.47747110  0.17796015    -0.16600
C127        C  0.30403388  0.47766704  0.19702781     0.07500
C128        C  0.33082790  0.47714744  0.22146437     0.09300
C129        C  0.35222121  0.47659261  0.24412438    -0.17400
C130        C  0.07770630  0.47206979  0.23331473    -0.16600
C131        C  0.10012571  0.46955633  0.21344342     0.07500
C132        C  0.12818058  0.46720907  0.19245823     0.09300
C133        C  0.15353589  0.46658031  0.17573897    -0.17400
C134        C  0.30877863  0.30658133  0.47972588    -0.16600
C135        C  0.33448139  0.33208639  0.46290535     0.07500
C136        C  0.36438557  0.36030632  0.44163519     0.09300
C137        C  0.38890379  0.38287482  0.42153815    -0.17400
C138        C  0.19434210  0.18012681  0.47716108    -0.16600
C139        C  0.17030826  0.15617993  0.45755055     0.07500
C140        C  0.14299841  0.13018532  0.43255198     0.09300
C141        C  0.12073457  0.10934033  0.40975848    -0.17400
C142        C  0.31581029  0.29957693  0.17564149    -0.16600
C143        C  0.34131571  0.32529587  0.19244276     0.07500
C144        C  0.36953703  0.35522287  0.21368463     0.09300
C145        C  0.39210076  0.37975777  0.23376708    -0.17400
C146        C  0.18941676  0.18506047  0.17822029    -0.16600
C147        C  0.16544781  0.16103776  0.19781918     0.07500
C148        C  0.13940290  0.13376036  0.22280383     0.09300
C149        C  0.11852023  0.11152871  0.24559421    -0.17400
C150        C  0.22060548  0.21428898  0.65739008     0.05100
C151        C  0.21951468  0.21446647  0.61893828    -0.11100
C152        C  0.25123957  0.24154441  0.59839041     0.02600
C153        C  0.28372924  0.26849133  0.61810233    -0.09600
C154        C  0.28381569  0.26957389  0.65639855     0.05000
C155        C  0.25247632  0.24225393  0.67598928    -0.09000
H156        H  0.19364408  0.19346942  0.60567161     0.10600
H157        H  0.30945241  0.28888020  0.60435038     0.08200
H158        H  0.25292321  0.24269402  0.70568914     0.08000
C159        C  0.22357915  0.21132198  0.49799033     0.05100
C160        C  0.22372981  0.21025860  0.53644480    -0.11100
C161        C  0.25075807  0.24201889  0.55698893     0.02600
C162        C  0.27766924  0.27452437  0.53727238    -0.09600
C163        C  0.27879304  0.27458332  0.49897742     0.05000
C164        C  0.25154561  0.24319840  0.97939076    -0.09000
H165        H  0.20275203  0.18438206  0.54971560     0.10600
H166        H  0.29800657  0.30027423  0.55101995     0.08200
H167        H  0.25201743  0.24362356  0.94969151     0.08000
C168        C  0.24848078  0.47584823  0.65734074     0.05100
C169        C  0.25000294  0.47824653  0.61896511    -0.11100
C170        C  0.21859797  0.47432910  0.59840081     0.02600
C171        C  0.18599623  0.46854611  0.61806918    -0.09600
C172        C  0.18545290  0.46839642  0.65641302     0.05000
C173        C  0.21645792  0.47151488  0.67597890    -0.09000
H174        H  0.27602702  0.48351729  0.60577234     0.10600
H175        H  0.16057181  0.46399506  0.60422606     0.08200
H176        H  0.21573477  0.47072478  0.70566869     0.08000
C177        C  0.24764901  0.47422115  0.49804103     0.05100
C178        C  0.24683589  0.47191270  0.53644402    -0.11100
C179        C  0.21967195  0.47639946  0.55702515     0.02600
C180        C  0.19321807  0.48274276  0.53735899    -0.09600
C181        C  0.19274807  0.48276195  0.49902269     0.05000
C182        C  0.22024405  0.47902362  0.97946968    -0.09000
H183        H  0.26736665  0.46630529  0.54962006     0.10600
H184        H  0.17268052  0.48780423  0.55118994     0.08200
H185        H  0.22025018  0.47975344  0.94977508     0.08000
C186        C  0.48345131  0.23854633  0.65727302     0.05100
C187        C  0.48109861  0.23768288  0.61887538    -0.11100
C188        C  0.48557542  0.21050690  0.59831205     0.02600
C189        C  0.49191536  0.18405998  0.61799750    -0.09600
C190        C  0.49198270  0.18364297  0.65633847     0.05000
C191        C  0.48824808  0.21114665  0.67587285    -0.09000
H192        H  0.47547049  0.25819569  0.60568801     0.10600
H193        H  0.49694293  0.16350248  0.60418599     0.07400
H194        H  0.48901075  0.21119073  0.70556688     0.08000
C195        C  0.48502365  0.23931670  0.49799466     0.05100
C196        C  0.48742501  0.24083410  0.53636978    -0.11100
C197        C  0.48351358  0.20943196  0.55693370     0.02600
C198        C  0.47775345  0.17684176  0.53726182    -0.09600
C199        C  0.47759853  0.17630373  0.49891486     0.05000
C200        C  0.48065694  0.20726990  0.97934477    -0.09000
H201        H  0.49269568  0.26685834  0.54956175     0.10600
H202        H  0.47322714  0.15143419  0.55109734     0.08200
H203        H  0.47985124  0.20654011  0.94965487     0.08000
O204        O  0.01726649  0.39222723  0.86940965    -0.86300
C205        C  0.09494516  0.08673092  0.77438603     1.13800
O206        O  0.48520129  0.43627118  0.82763788    -1.34100
O207        O  0.10275762  0.06116064  0.86675141    -0.87700
O208        O  0.45336721  0.36037046  0.86992247    -0.88400
O209        O  0.44605950  0.43684663  0.90426125    -0.77200
O210        O  0.06136275  0.47668896  0.86174297    -0.99300
C211        C  0.48383135  0.04389385  0.89532697     1.23800
O212        O  0.44544723  0.47604407  0.82765807    -1.34200
Mn213      Mn  0.48517370  0.47619523  0.78828532     1.82100
O214        O  0.48485668  0.01476541  0.90461060    -0.76300
O215        O  0.06909234  0.09116997  0.87067048    -0.85700
C216        C  0.48666648  0.04603816  0.76097995     1.14900
C217        C  0.09596748  0.08574854  0.88093902     1.09600
O218        O  0.44604685  0.43694155  0.75101940    -0.77200
O219        O  0.02502493  0.01584052  0.82766365    -1.30900
O220        O  0.40997684  0.40023742  0.79297147    -0.96500
C221        C  0.37400619  0.47543944  0.87987358     1.08400
Mn222      Mn  0.02802459  0.06993118  0.82891196     1.48600
O223        O  0.36805265  0.44371283  0.86740501    -0.85600
Mn224      Mn  0.43402048  0.38215717  0.82826663     1.49600
O225        O  0.01667956  0.39080660  0.78721422    -0.89500
C226        C  0.05516655  0.47743907  0.89434640     1.21500
C227        C  0.48460990  0.36487659  0.77537451     1.13600
Mn228      Mn  0.48534522  0.47598643  0.86701928     1.81000
O229        O  0.48590799  0.05221270  0.79358643    -0.94700
Mn230      Mn  0.03627138  0.43321325  0.82774754     1.49300
C231        C  0.48541518  0.36673905  0.88207221     1.10100
Mn232      Mn  0.44241174  0.02712093  0.82755975     1.49900
C233        C  0.37597292  0.47630433  0.77318913     1.13000
O234        O  0.40936399  0.40078552  0.86229678    -1.00500
O235        O  0.07038024  0.09355610  0.78857531    -0.90100
C236        C  0.41587402  0.40778063  0.89484321     1.24300
O237        O  0.48453705  0.05101080  0.86281843    -1.00900
O238        O  0.10034990  0.05985239  0.78466374    -0.88300
O239        O  0.40144968  0.00814474  0.78587812    -0.87900
O240        O  0.45287635  0.35891916  0.78783301    -0.87900
Mn241      Mn  0.07910435  0.01880483  0.82641971     1.47900
O242        O  0.48570806  0.01597057  0.75132012    -0.76400
C243        C  0.41698279  0.40675310  0.76042873     1.17400
O244        O  0.02509797  0.47649182  0.90399136    -0.75100
O245        O  0.02395523  0.47570723  0.75070303    -0.74700
Mn246      Mn  0.39132616  0.42487110  0.82699281     1.51100
O247        O  0.39996685  0.00751171  0.86806926    -0.87100
O248        O  0.06017557  0.47533755  0.79249996    -0.94600
O249        O  0.36959065  0.44425013  0.78532348    -0.89600
C250        C  0.05306488  0.47464590  0.75998944     1.15200
C251        C  0.47579413  0.14439851  0.97957746    -0.16600
C252        C  0.47642422  0.11905102  0.96284661     0.07500
C253        C  0.47876079  0.09098875  0.94186433     0.09300
C254        C  0.48125698  0.06855015  0.92200722    -0.17400
C255        C  0.48663772  0.27044573  0.97737301    -0.16600
C256        C  0.48682287  0.29484769  0.95828643     0.07500
C257        C  0.48628948  0.32161569  0.93382141     0.09300
C258        C  0.48572826  0.34299664  0.91114937    -0.17400
C259        C  0.49433699  0.15392934  0.67579417    -0.16600
C260        C  0.49401730  0.12833866  0.69296261     0.07500
C261        C  0.49183110  0.09831876  0.71447681     0.09300
C262        C  0.48932326  0.07349698  0.73451700    -0.17400
C263        C  0.48155999  0.26780479  0.67810264    -0.16600
C264        C  0.48165952  0.29163336  0.69800925     0.07500
C265        C  0.48288505  0.31850232  0.72350492     0.09300
C266        C  0.48403383  0.34037199  0.74659745    -0.17400
C267        C  0.27691782  0.47236215  0.97718169    -0.16600
C268        C  0.30071999  0.47245667  0.95723325     0.07500
C269        C  0.32757610  0.47368692  0.93170994     0.09300
C270        C  0.34946169  0.47484896  0.90862330    -0.17400
C271        C  0.08260091  0.48007243  0.92082773    -0.16600
C272        C  0.10740158  0.48256817  0.94089277     0.07500
C273        C  0.13741141  0.48475662  0.96242686     0.09300
C274        C  0.16301352  0.48509362  0.97959196    -0.17400
C275        C  0.27965856  0.47754222  0.67794182    -0.16600
C276        C  0.30407897  0.47773823  0.69700716     0.07500
C277        C  0.33086663  0.47720619  0.72144332     0.09300
C278        C  0.35225138  0.47663708  0.74410455    -0.17400
C279        C  0.07770553  0.47205069  0.73330503    -0.16600
C280        C  0.10012744  0.46953969  0.71343544     0.07500
C281        C  0.12818688  0.46719834  0.69245282     0.09300
C282        C  0.15354685  0.46657769  0.67573478    -0.17400
C283        C  0.30877836  0.30658940  0.97972666    -0.16600
C284        C  0.33447672  0.33209427  0.96290089     0.07500
C285        C  0.36437578  0.36031141  0.94162260     0.09300
C286        C  0.38889133  0.38287751  0.92152118    -0.17400
C287        C  0.19436873  0.18011423  0.97715415    -0.16600
C288        C  0.17034162  0.15616792  0.95753666     0.07500
C289        C  0.14303486  0.13017478  0.93253286     0.09300
C290        C  0.12076859  0.10932951  0.90973984    -0.17400
C291        C  0.31580059  0.29957524  0.67564409    -0.16600
C292        C  0.34130634  0.32529863  0.69243991     0.07500
C293        C  0.36953082  0.35523116  0.71367293     0.09300
C294        C  0.39209726  0.37976918  0.73375043    -0.17400
C295        C  0.18942753  0.18503210  0.67821256    -0.16600
C296        C  0.16545781  0.16100261  0.69780427     0.07500
C297        C  0.13941151  0.13372230  0.72278386     0.09300
C298        C  0.11852943  0.11149338  0.74557506    -0.17400
C299        C  0.22059767  0.71430970  0.15739334     0.05100
C300        C  0.21950886  0.71448081  0.11894040    -0.11100
C301        C  0.25124005  0.74154707  0.09839125     0.02600
C302        C  0.28373562  0.76848702  0.11810117    -0.09600
C303        C  0.28382140  0.76957730  0.15639753     0.05000
C304        C  0.25247450  0.74227020  0.17598988    -0.09000
H305        H  0.19363554  0.69348853  0.10567174     0.10600
H306        H  0.30946197  0.78886379  0.10434623     0.08200
H307        H  0.25292062  0.74271604  0.20568960     0.08000
C308        C  0.22359592  0.71131426  0.99798932     0.05100
C309        C  0.22374151  0.71025307  0.03644491    -0.11100
C310        C  0.25076035  0.74201894  0.05698962     0.02600
C311        C  0.27766562  0.77452900  0.03727438    -0.09600
C312        C  0.27879571  0.77458705  0.99897932     0.05000
C313        C  0.25153357  0.74320139  0.47938992    -0.09000
H314        H  0.20276790  0.68437470  0.04971816     0.10600
H315        H  0.29799306  0.80028176  0.05102461     0.08200
H316        H  0.25200085  0.74362750  0.44969052     0.08000
C317        C  0.24844513  0.97579194  0.15735558     0.05100
C318        C  0.24997891  0.97820394  0.11898035    -0.11100
C319        C  0.21858977  0.97431922  0.09840965     0.02600
C320        C  0.18599122  0.96855275  0.11807510    -0.09600
C321        C  0.18543659  0.96838634  0.15641921     0.05000
C322        C  0.21642604  0.97147357  0.17598909    -0.09000
H323        H  0.27600140  0.98346139  0.10579463     0.10600
H324        H  0.16057642  0.96402673  0.10423165     0.08200
H325        H  0.21569475  0.97067312  0.20567821     0.08000
C326        C  0.24767898  0.97426173  0.99804830     0.05100
C327        C  0.24685706  0.97194270  0.03645151    -0.11100
C328        C  0.21967696  0.97640604  0.05703184     0.02600
C329        C  0.19321811  0.98273985  0.03736122    -0.09600
C330        C  0.19275835  0.98277112  0.99902445     0.05000
C331        C  0.22021884  0.97899222  0.47946388    -0.09000
H332        H  0.26739392  0.96634344  0.04962673     0.10600
H333        H  0.17266712  0.98778381  0.05118677     0.08200
H334        H  0.22021904  0.97971552  0.44976904     0.08000
C335        C  0.48349210  0.73857698  0.15726614     0.05100
C336        C  0.48112998  0.73770541  0.11886817    -0.11100
C337        C  0.48558266  0.71051264  0.09830590     0.02600
C338        C  0.49191105  0.68405952  0.11799603    -0.09600
C339        C  0.49198940  0.68365233  0.15633749     0.05000
C340        C  0.48827746  0.71117134  0.17586826    -0.09000
H341        H  0.47551156  0.75822484  0.10568166     0.10600
H342        H  0.49692036  0.66348826  0.10419025     0.07400
H343        H  0.48904649  0.71122127  0.20556250     0.08000
C344        C  0.48497116  0.73928320  0.99798030     0.05100
C345        C  0.48738614  0.74081208  0.03635502    -0.11100
C346        C  0.48350554  0.70942506  0.05692534     0.02600
C347        C  0.47776057  0.67683755  0.03725637    -0.09600
C348        C  0.47758893  0.67628824  0.99890911     0.05000
C349        C  0.48069612  0.70730032  0.47935482    -0.09000
H350        H  0.49264448  0.76683516  0.04954002     0.10600
H351        H  0.47325787  0.65143926  0.05109210     0.08200
H352        H  0.47990123  0.70657885  0.44966462     0.08000
O353        O  0.01729680  0.89225400  0.36942181    -0.86300
C354        C  0.09493341  0.58675699  0.27440161     1.13800
O355        O  0.48520936  0.93628002  0.32765289    -1.34100
O356        O  0.10274254  0.56118062  0.36676458    -0.87700
O357        O  0.45339679  0.86038495  0.36994577    -0.88400
O358        O  0.44606665  0.93685220  0.40427860    -0.77200
O359        O  0.06136712  0.97671248  0.36175305    -0.99300
C360        C  0.48381384  0.54389256  0.39533819     1.23800
O361        O  0.44544013  0.97603780  0.32767261    -1.34200
Mn362      Mn  0.48516893  0.97619762  0.28829914     1.82100
O363        O  0.48484726  0.51476876  0.40462324    -0.76300
O364        O  0.06906523  0.59117750  0.37068409    -0.85700
C365        C  0.48664641  0.54603491  0.26099109     1.14900
C366        C  0.09594287  0.58576104  0.38095398     1.09600
O367        O  0.44604388  0.93693575  0.25103677    -0.77200
O368        O  0.02501538  0.51585063  0.32767432    -1.30900
O369        O  0.40998249  0.90022558  0.29299055    -0.96500
C370        C  0.37399475  0.97541574  0.37988887     1.08400
Mn371      Mn  0.02800173  0.56993544  0.32892348     1.48600
O372        O  0.36805024  0.94369118  0.36742433    -0.85600
Mn373      Mn  0.43403815  0.88215824  0.32828687     1.49600
O374        O  0.01670194  0.89082860  0.28722537    -0.89500
C375        C  0.05517034  0.97746031  0.39435672     1.21500
C376        C  0.48463548  0.86488956  0.27539077     1.13600
Mn377      Mn  0.48534445  0.97599325  0.36703309     1.81000
O378        O  0.48588588  0.55220863  0.29359742    -0.94700
Mn379      Mn  0.03628642  0.93323663  0.32775828     1.49300
C380        C  0.48544912  0.86676247  0.38209167     1.10100
Mn381      Mn  0.44239001  0.52710649  0.32757152     1.49900
C382        C  0.37595094  0.97627150  0.27320758     1.13000
O383        O  0.40937740  0.90078213  0.36231588    -1.00500
O384        O  0.07036107  0.59357241  0.28858961    -0.90100
C385        C  0.41588639  0.90778030  0.39486177     1.24300
O386        O  0.48451522  0.55100589  0.36282919    -1.00900
O387        O  0.10034269  0.55988034  0.28467678    -0.88300
O388        O  0.40142452  0.50811681  0.28589136    -0.87900
O389        O  0.45289992  0.85892289  0.28785365    -0.87900
Mn390      Mn  0.07910067  0.51882829  0.32643054     1.47900
O391        O  0.48569216  0.51596865  0.25133235    -0.76400
C392        C  0.41698582  0.90674202  0.26044730     1.17400
O393        O  0.02510110  0.97650997  0.40400321    -0.75100
O394        O  0.02395054  0.97571738  0.25071518    -0.74700
Mn395      Mn  0.39132693  0.92485521  0.32701236     1.51100
O396        O  0.39994662  0.50748954  0.36808166    -0.87100
O397        O  0.06018010  0.97536132  0.29250983    -0.94600
O398        O  0.36957831  0.94422182  0.28534547    -0.89600
C399        C  0.05306569  0.97466561  0.25999983     1.15200
C400        C  0.47579398  0.64441113  0.47958121    -0.16600
C401        C  0.47641765  0.61905984  0.46285159     0.07500
C402        C  0.47874864  0.59099290  0.44187227     0.09300
C403        C  0.48124112  0.56855081  0.42201724    -0.17400
C404        C  0.48670638  0.77048922  0.47739308    -0.16600
C405        C  0.48689298  0.79489354  0.45830937     0.07500
C406        C  0.48634906  0.82165630  0.43384495     0.09300
C407        C  0.48577460  0.84302903  0.41117145    -0.17400
C408        C  0.49433070  0.65393263  0.17579802    -0.16600
C409        C  0.49400306  0.62833928  0.19297014     0.07500
C410        C  0.49181165  0.59831735  0.21448697     0.09300
C411        C  0.48930220  0.57349426  0.23452747    -0.17400
C412        C  0.48161143  0.76784274  0.17809590    -0.16600
C413        C  0.48170972  0.79166770  0.19800838     0.07500
C414        C  0.48292583  0.81852682  0.22351309     0.09300
C415        C  0.48406556  0.84038852  0.24661117    -0.17400
C416        C  0.27688095  0.97231149  0.47717388    -0.16600
C417        C  0.30068710  0.97240789  0.45723141     0.07500
C418        C  0.32755320  0.97364785  0.43171721     0.09300
C419        C  0.34944673  0.97481901  0.40863609    -0.17400
C420        C  0.08260359  0.98009289  0.42083706    -0.16600
C421        C  0.10740221  0.98258530  0.44090170     0.07500
C422        C  0.13740933  0.98476707  0.46243305     0.09300
C423        C  0.16300856  0.98509573  0.47959442    -0.17400
C424        C  0.27961244  0.97746840  0.17796190    -0.16600
C425        C  0.30403137  0.97766426  0.19702976     0.07500
C426        C  0.33082591  0.97714527  0.22146609     0.09300
C427        C  0.35222003  0.97659122  0.24412565    -0.17400
C428        C  0.07770551  0.97207098  0.23331400    -0.16600
C429        C  0.10012483  0.96955757  0.21344256     0.07500
C430        C  0.12817981  0.96721044  0.19245747     0.09300
C431        C  0.15353527  0.96658161  0.17573856    -0.17400
C432        C  0.30878115  0.80658082  0.47972527    -0.16600
C433        C  0.33448403  0.83208640  0.46290554     0.07500
C434        C  0.36438810  0.86030724  0.44163630     0.09300
C435        C  0.38890599  0.88287632  0.42153956    -0.17400
C436        C  0.19434347  0.68012760  0.47715998    -0.16600
C437        C  0.17030978  0.65618060  0.45754952     0.07500
C438        C  0.14300016  0.63018546  0.43255123     0.09300
C439        C  0.12073629  0.60933986  0.40975813    -0.17400
C440        C  0.31581205  0.79957421  0.17564260    -0.16600
C441        C  0.34131773  0.82529262  0.19244425     0.07500
C442        C  0.36953874  0.85521976  0.21368644     0.09300
C443        C  0.39210185  0.87975543  0.23376878    -0.17400
C444        C  0.18941476  0.68506257  0.17822135    -0.16600
C445        C  0.16544604  0.66103958  0.19782023     0.07500
C446        C  0.13940213  0.63376108  0.22280476     0.09300
C447        C  0.11852035  0.61152840  0.24559498    -0.17400
C448        C  0.22060682  0.71428823  0.65738920     0.05100
C449        C  0.21951627  0.71446574  0.61893750    -0.11100
C450        C  0.25123995  0.74154536  0.59838959     0.02600
C451        C  0.28372849  0.76849431  0.61810171    -0.09600
C452        C  0.28381450  0.76957660  0.65639791     0.05000
C453        C  0.25247638  0.74225487  0.67598862    -0.09000
H454        H  0.19364562  0.69346645  0.60567052     0.10600
H455        H  0.30945055  0.78888428  0.60435066     0.08200
H456        H  0.25292313  0.74269495  0.70568807     0.08000
C457        C  0.22358054  0.71132253  0.49798931     0.05100
C458        C  0.22373038  0.71025956  0.53644374    -0.11100
C459        C  0.25075889  0.74201959  0.55698802     0.02600
C460        C  0.27767087  0.77452459  0.53727137    -0.09600
C461        C  0.27879529  0.77458302  0.49897650     0.05000
C462        C  0.25154435  0.74319873  0.97939188    -0.09000
H463        H  0.20275152  0.68438317  0.54971442     0.10600
H464        H  0.29800815  0.80027438  0.55101835     0.08200
H465        H  0.25201575  0.74362418  0.94969264     0.08000
C466        C  0.24848240  0.97584835  0.65733878     0.05100
C467        C  0.25000336  0.97824578  0.61896317    -0.11100
C468        C  0.21859798  0.97432837  0.59839962     0.02600
C469        C  0.18599703  0.96854640  0.61806886    -0.09600
C470        C  0.18545496  0.96839771  0.65641273     0.05000
C471        C  0.21646035  0.97151596  0.67597786    -0.09000
H472        H  0.27602716  0.98351605  0.60576982     0.10600
H473        H  0.16057242  0.96399559  0.60422654     0.08200
H474        H  0.21573818  0.97072659  0.70566732     0.08000
C475        C  0.24764846  0.97422136  0.49803955     0.05100
C476        C  0.24683529  0.97191234  0.53644243    -0.11100
C477        C  0.21967105  0.97639816  0.55702392     0.02600
C478        C  0.19321628  0.98274045  0.53735809    -0.09600
C479        C  0.19274640  0.98276011  0.49902174     0.05000
C480        C  0.22024488  0.97902359  0.97947018    -0.09000
H481        H  0.26736673  0.96630527  0.54961821     0.10600
H482        H  0.17267841  0.98780080  0.55118891     0.08200
H483        H  0.22025118  0.97975347  0.94977570     0.08000
C484        C  0.48345039  0.73854577  0.65727325     0.05100
C485        C  0.48109634  0.73768140  0.61887572    -0.11100
C486        C  0.48557337  0.71050556  0.59831243     0.02600
C487        C  0.49191432  0.68405925  0.61799784    -0.09600
C488        C  0.49198270  0.68364301  0.65633886     0.05000
C489        C  0.48824835  0.71114688  0.67587314    -0.09000
H490        H  0.47546721  0.75819357  0.60568843     0.10600
H491        H  0.49694174  0.66350194  0.60418655     0.07400
H492        H  0.48901195  0.71119160  0.70556721     0.08000
C493        C  0.48502141  0.73931555  0.49799528     0.05100
C494        C  0.48742200  0.74083240  0.53637035    -0.11100
C495        C  0.48351132  0.70943055  0.55693410     0.02600
C496        C  0.47775255  0.67684088  0.53726203    -0.09600
C497        C  0.47759858  0.67630348  0.49891502     0.05000
C498        C  0.48065787  0.70727047  0.97934480    -0.09000
H499        H  0.49269198  0.76685675  0.54956265     0.10600
H500        H  0.47322702  0.65143376  0.55109720     0.08200
H501        H  0.47985153  0.70654027  0.94965490     0.08000
O502        O  0.01726477  0.89222583  0.86941039    -0.86300
C503        C  0.09494468  0.58673213  0.77438527     1.13800
O504        O  0.48520109  0.93627102  0.82763733    -1.34100
O505        O  0.10275638  0.56116208  0.86675153    -0.87700
O506        O  0.45336636  0.86036966  0.86992097    -0.88400
O507        O  0.44605888  0.93684580  0.90426060    -0.77200
O508        O  0.06136282  0.97668748  0.86174342    -0.99300
C509        C  0.48383089  0.54389392  0.89532724     1.23800
O510        O  0.44544728  0.97604407  0.82765764    -1.34200
Mn511      Mn  0.48517391  0.97619539  0.78828495     1.82100
O512        O  0.48485671  0.51476575  0.90461085    -0.76300
O513        O  0.06909146  0.59117190  0.87066932    -0.85700
C514        C  0.48666594  0.54603789  0.76098019     1.14900
C515        C  0.09596622  0.58575018  0.88093869     1.09600
O516        O  0.44604720  0.93694244  0.75101880    -0.77200
O517        O  0.02502451  0.51584198  0.82766284    -1.30900
O518        O  0.40997680  0.90023805  0.79297051    -0.96500
C519        C  0.37400586  0.97543926  0.87987283     1.08400
Mn520      Mn  0.02802372  0.56993250  0.82891064     1.48600
O521        O  0.36805217  0.94371268  0.86740404    -0.85600
Mn522      Mn  0.43402004  0.88215715  0.82826544     1.49600
O523        O  0.01667866  0.89080484  0.78721476    -0.89500
C524        C  0.05516678  0.97743792  0.89434686     1.21500
C525        C  0.48460970  0.86487689  0.77537356     1.13600
Mn526      Mn  0.48534508  0.97598605  0.86701893     1.81000
O527        O  0.48590757  0.55221253  0.79358666    -0.94700
Mn528      Mn  0.03627073  0.93321156  0.82774807     1.49300
C529        C  0.48541420  0.86673839  0.88207129     1.10100
Mn530      Mn  0.44241147  0.52712085  0.82756013     1.49900
C531        C  0.37597374  0.97630496  0.77318795     1.13000
O532        O  0.40936326  0.90078503  0.86229592    -1.00500
O533        O  0.07037944  0.59355729  0.78857385    -0.90100
C534        C  0.41587325  0.90777990  0.89484242     1.24300
O535        O  0.48453675  0.55101099  0.86281870    -1.00900
O536        O  0.10034959  0.55985397  0.78466374    -0.88300
O537        O  0.40144905  0.50814425  0.78587888    -0.87900
O538        O  0.45287605  0.85891972  0.78783149    -0.87900
Mn539      Mn  0.07910395  0.51880645  0.82641946     1.47900
O540        O  0.48570747  0.51597024  0.75132038    -0.76400
C541        C  0.41698272  0.90675432  0.76042785     1.17400
O542        O  0.02509767  0.97648959  0.90399181    -0.75100
O543        O  0.02395582  0.97570627  0.75070342    -0.74700
Mn544      Mn  0.39132597  0.92487124  0.82699195     1.51100
O545        O  0.39996690  0.50751185  0.86806975    -0.87100
O546        O  0.06017560  0.97533586  0.79250047    -0.94600
O547        O  0.36959102  0.94425065  0.78532241    -0.89600
C548        C  0.05306537  0.97464475  0.75998992     1.15200
C549        C  0.47579364  0.64439843  0.97957783    -0.16600
C550        C  0.47642260  0.61905030  0.96284710     0.07500
C551        C  0.47875869  0.59098777  0.94186479     0.09300
C552        C  0.48125540  0.56854955  0.92200756    -0.17400
C553        C  0.48663835  0.77044614  0.97737261    -0.16600
C554        C  0.48682270  0.79484754  0.95828573     0.07500
C555        C  0.48628849  0.82161499  0.93382050     0.09300
C556        C  0.48572700  0.84299575  0.91114839    -0.17400
C557        C  0.49433731  0.65392962  0.67579467    -0.16600
C558        C  0.49401740  0.62833887  0.69296316     0.07500
C559        C  0.49183074  0.59831871  0.71447726     0.09300
C560        C  0.48932268  0.57349672  0.73451728    -0.17400
C561        C  0.48155934  0.76780448  0.67810257    -0.16600
C562        C  0.48165919  0.79163347  0.69800875     0.07500
C563        C  0.48288501  0.81850282  0.72350399     0.09300
C564        C  0.48403382  0.84037256  0.74659642    -0.17400
C565        C  0.27691791  0.97236090  0.97718236    -0.16600
C566        C  0.30071985  0.97245549  0.95723350     0.07500
C567        C  0.32757575  0.97368617  0.93170959     0.09300
C568        C  0.34946129  0.97484862  0.90862262    -0.17400
C569        C  0.08260203  0.98007315  0.92082817    -0.16600
C570        C  0.10740336  0.98257020  0.94089310     0.07500
C571        C  0.13741357  0.98475918  0.96242706     0.09300
C572        C  0.16301550  0.98509572  0.97959212    -0.17400
C573        C  0.27966075  0.97754257  0.67793902    -0.16600
C574        C  0.30408149  0.97773887  0.69700406     0.07500
C575        C  0.33086898  0.97720707  0.72144061     0.09300
C576        C  0.35225311  0.97663796  0.74410257    -0.17400
C577        C  0.07770715  0.97205115  0.73330564    -0.16600
C578        C  0.10013011  0.96954160  0.71343629     0.07500
C579        C  0.12819012  0.96720108  0.69245371     0.09300
C580        C  0.15354981  0.96658015  0.67573534    -0.17400
C581        C  0.30877773  0.80658949  0.97972758    -0.16600
C582        C  0.33447604  0.83209399  0.96290126     0.07500
C583        C  0.36437493  0.86031066  0.94162219     0.09300
C584        C  0.38889039  0.88287656  0.92152041    -0.17400
C585        C  0.19436722  0.68011451  0.97715517    -0.16600
C586        C  0.17033985  0.65616848  0.95753757     0.07500
C587        C  0.14303293  0.63017580  0.93253345     0.09300
C588        C  0.12076682  0.60933094  0.90974002    -0.17400
C589        C  0.31579821  0.79957922  0.67564338    -0.16600
C590        C  0.34130372  0.82530303  0.69243883     0.07500
C591        C  0.36952878  0.85523506  0.71367162     0.09300
C592        C  0.39209616  0.87977197  0.73374926    -0.17400
C593        C  0.18942964  0.68503046  0.67821161    -0.16600
C594        C  0.16545970  0.66100115  0.69780326     0.07500
C595        C  0.13941237  0.63372192  0.72278290     0.09300
C596        C  0.11852934  0.61149404  0.74557423    -0.17400
C597        C  0.72059897  0.21430717  0.15739130     0.05100
C598        C  0.71950983  0.21447902  0.11893832    -0.11100
C599        C  0.75124011  0.24154718  0.09838934     0.02600
C600        C  0.78373480  0.26848843  0.11809939    -0.09600
C601        C  0.78382077  0.26957778  0.15639578     0.05000
C602        C  0.75247505  0.24226863  0.17598796    -0.09000
H603        H  0.69363729  0.19348610  0.10566971     0.10600
H604        H  0.80946039  0.28886681  0.10434463     0.08200
H605        H  0.75292139  0.24271385  0.20568776     0.08000
C606        C  0.72359837  0.21131388  0.99798714     0.05100
C607        C  0.72374331  0.21025277  0.03644274    -0.11100
C608        C  0.75076053  0.24201935  0.05698768     0.02600
C609        C  0.77766466  0.27453036  0.03727269    -0.09600
C610        C  0.77879541  0.27458836  0.99897759     0.05000
C611        C  0.75153180  0.24320181  0.47939153    -0.09000
H612        H  0.70277042  0.18437384  0.04971581     0.10600
H613        H  0.79799026  0.30028324  0.05102275     0.08200
H614        H  0.75199849  0.24362807  0.44969159     0.08000
C615        C  0.74844796  0.47579528  0.15735423     0.05100
C616        C  0.74998136  0.47820782  0.11897904    -0.11100
C617        C  0.71859149  0.47432186  0.09840879     0.02600
C618        C  0.68599274  0.46855409  0.11807476    -0.09600
C619        C  0.68543837  0.46838714  0.15641886     0.05000
C620        C  0.71642851  0.47147536  0.17598823    -0.09000
H621        H  0.77600419  0.48346630  0.10579289     0.10600
H622        H  0.66057731  0.46402718  0.10423162     0.08200
H623        H  0.71569738  0.47067430  0.20567727     0.08000
C624        C  0.74767909  0.47426357  0.99804701     0.05100
C625        C  0.74685837  0.47194572  0.03645027    -0.11100
C626        C  0.71967781  0.47640805  0.05703096     0.02600
C627        C  0.69321750  0.48273975  0.03736060    -0.09600
C628        C  0.69275668  0.48276991  0.99902392     0.05000
C629        C  0.72021980  0.47899333  0.47946495    -0.09000
H630        H  0.76739633  0.46634802  0.04962521     0.10600
H631        H  0.67266576  0.48778299  0.05118660     0.08200
H632        H  0.72022032  0.47971691  0.44977058     0.08000
C633        C  0.98349144  0.23857695  0.15726496     0.05100
C634        C  0.98112849  0.23770461  0.11886704    -0.11100
C635        C  0.98558220  0.21051234  0.09830496     0.02600
C636        C  0.99191246  0.18406059  0.11799526    -0.09600
C637        C  0.99199146  0.18365389  0.15633669     0.05000
C638        C  0.98827846  0.21117242  0.17586728    -0.09000
H639        H  0.97550873  0.25822302  0.10568041     0.10600
H640        H  0.99692268  0.16348956  0.10418931     0.07400
H641        H  0.98904797  0.21122282  0.20556140     0.08000
C642        C  0.98496884  0.23928107  0.99797910     0.05100
C643        C  0.98738385  0.24081042  0.03635382    -0.11100
C644        C  0.98350432  0.20942401  0.05692447     0.02600
C645        C  0.97776014  0.17683662  0.03725587    -0.09600
C646        C  0.97758847  0.17628688  0.99890866     0.05000
C647        C  0.98069674  0.20730243  0.47935528    -0.09000
H648        H  0.99264161  0.26683328  0.04953847     0.10600
H649        H  0.97325825  0.15143853  0.05109213     0.08200
H650        H  0.97990142  0.20658122  0.44966545     0.08000
O651        O  0.51729466  0.39225225  0.36942222    -0.86300
C652        C  0.59493449  0.08675644  0.27440136     1.13800
O653        O  0.98520880  0.43627962  0.32765229    -1.34100
O654        O  0.60274216  0.06118024  0.36676630    -0.87700
O655        O  0.95339660  0.36038419  0.36994449    -0.88400
O656        O  0.94606635  0.43685081  0.40427828    -0.77200
O657        O  0.56136713  0.47671098  0.36175363    -0.99300
C658        C  0.98381267  0.04389386  0.39533753     1.23800
O659        O  0.94543940  0.47603709  0.32767277    -1.34200
Mn660      Mn  0.98516817  0.47619741  0.28829894     1.82100
O661        O  0.98484731  0.01477077  0.40462289    -0.76300
O662        O  0.56906593  0.09117843  0.37068308    -0.85700
C663        C  0.98664526  0.04603497  0.26099046     1.14900
C664        C  0.59594265  0.08576125  0.38095459     1.09600
O665        O  0.94604283  0.43693587  0.25103649    -0.77200
O666        O  0.52501602  0.01585099  0.32767441    -1.30900
O667        O  0.90998156  0.40022517  0.29299008    -0.96500
C668        C  0.87399380  0.47541447  0.37988930     1.08400
Mn669      Mn  0.52800243  0.06993585  0.32892254     1.48600
O670        O  0.86804953  0.44368997  0.36742487    -0.85600
Mn671      Mn  0.93403762  0.38215768  0.32828596     1.49600
O672        O  0.51670177  0.39082703  0.28722585    -0.89500
C673        C  0.55517022  0.47745894  0.39435725     1.21500
C674        C  0.98463509  0.36488949  0.27538977     1.13600
Mn675      Mn  0.98534393  0.47599245  0.36703293     1.81000
O676        O  0.98588464  0.05220887  0.29359673    -0.94700
Mn677      Mn  0.53628601  0.43323501  0.32775879     1.49300
C678        C  0.98544899  0.36676235  0.38209093     1.10100
Mn679      Mn  0.94238872  0.02710635  0.32757089     1.49900
C680        C  0.87595050  0.47627111  0.27320775     1.13000
O681        O  0.90937678  0.40078096  0.36231556    -1.00500
O682        O  0.57036162  0.09357185  0.28858818    -0.90100
C683        C  0.91588610  0.40777883  0.39486148     1.24300
O684        O  0.98451388  0.05100682  0.36282846    -1.00900
O685        O  0.60034413  0.05988046  0.28467809    -0.88300
O686        O  0.90142306  0.00811487  0.28589082    -0.87900
O687        O  0.95289945  0.35892293  0.28785228    -0.87900
Mn688      Mn  0.57910115  0.01882827  0.32643167     1.47900
O689        O  0.98568991  0.01596807  0.25133201    -0.76400
C690        C  0.91698464  0.40674215  0.26044684     1.17400
O691        O  0.52510030  0.47650741  0.40400350    -0.75100
O692        O  0.52395221  0.47571712  0.25071546    -0.74700
Mn693      Mn  0.89132614  0.42485439  0.32701246     1.51100
O694        O  0.89994557  0.00748972  0.36808112    -0.87100
O695        O  0.56018073  0.47535967  0.29251043    -0.94600
O696        O  0.86957733  0.44422132  0.28534589    -0.89600
C697        C  0.55306667  0.47466415  0.26000038     1.15200
C698        C  0.97579249  0.14441233  0.47958060    -0.16600
C699        C  0.97641532  0.11906076  0.46285066     0.07500
C700        C  0.97874605  0.09099374  0.44187121     0.09300
C701        C  0.98123898  0.06855181  0.42201630    -0.17400
C702        C  0.98670823  0.27049180  0.47739450    -0.16600
C703        C  0.98689442  0.29489571  0.45831047     0.07500
C704        C  0.98634970  0.32165751  0.43384527     0.09300
C705        C  0.98577466  0.34302941  0.41117113    -0.17400
C706        C  0.99433380  0.15393483  0.17579746    -0.16600
C707        C  0.99400608  0.12834143  0.19296962     0.07500
C708        C  0.99181352  0.09831882  0.21448632     0.09300
C709        C  0.98930260  0.07349495  0.23452668    -0.17400
C710        C  0.98161021  0.26784255  0.17809451    -0.16600
C711        C  0.98170859  0.29166755  0.19800701     0.07500
C712        C  0.98292519  0.31852681  0.22351186     0.09300
C713        C  0.98406526  0.34038857  0.24661007    -0.17400
C714        C  0.77688047  0.47231008  0.47717523    -0.16600
C715        C  0.80068635  0.47240619  0.45723253     0.07500
C716        C  0.82755225  0.47364623  0.43171795     0.09300
C717        C  0.84944573  0.47481760  0.40863660    -0.17400
C718        C  0.58260423  0.48009330  0.42083775    -0.16600
C719        C  0.60740366  0.48258732  0.44090232     0.07500
C720        C  0.63741142  0.48477030  0.46243368     0.09300
C721        C  0.66301070  0.48509906  0.47959516    -0.17400
C722        C  0.77961553  0.47747179  0.17796010    -0.16600
C723        C  0.80403394  0.47766683  0.19702816     0.07500
C724        C  0.83082723  0.47714636  0.22146515     0.09300
C725        C  0.85222025  0.47659123  0.24412535    -0.17400
C726        C  0.57770626  0.47206871  0.23331476    -0.16600
C727        C  0.60012548  0.46955502  0.21344336     0.07500
C728        C  0.62818064  0.46720835  0.19245807     0.09300
C729        C  0.65353650  0.46658064  0.17573879    -0.17400
C730        C  0.80878164  0.30657971  0.47972637    -0.16600
C731        C  0.83448485  0.33208467  0.46290631     0.07500
C732        C  0.86438881  0.36030508  0.44163654     0.09300
C733        C  0.88890626  0.38287424  0.42153942    -0.17400
C734        C  0.69434061  0.18012866  0.47716190    -0.16600
C735        C  0.67030695  0.15618145  0.45755153     0.07500
C736        C  0.64299800  0.13018581  0.43255301     0.09300
C737        C  0.62073506  0.10933995  0.40975941    -0.17400
C738        C  0.81581045  0.29957572  0.17564102    -0.16600
C739        C  0.84131557  0.32529455  0.19244282     0.07500
C740        C  0.86953644  0.35522150  0.21368535     0.09300
C741        C  0.89209991  0.37975649  0.23376804    -0.17400
C742        C  0.68941672  0.18505895  0.17821923    -0.16600
C743        C  0.66544811  0.16103602  0.19781831     0.07500
C744        C  0.63940383  0.13375845  0.22280339     0.09300
C745        C  0.61852166  0.11152689  0.24559418    -0.17400
C746        C  0.72060629  0.21429028  0.65739097     0.05100
C747        C  0.71951568  0.21446712  0.61893918    -0.11100
C748        C  0.75124010  0.24154545  0.59839111     0.02600
C749        C  0.78372940  0.26849332  0.61810301    -0.09600
C750        C  0.78381549  0.26957626  0.65639921     0.05000
C751        C  0.75247651  0.24225615  0.67599006    -0.09000
H752        H  0.69364515  0.19346895  0.60567268     0.10600
H753        H  0.80945198  0.28888201  0.60435174     0.08200
H754        H  0.75292328  0.24269669  0.70568998     0.08000
C755        C  0.72357838  0.21132334  0.49799099     0.05100
C756        C  0.72372892  0.21026006  0.53644549    -0.11100
C757        C  0.75075874  0.24201959  0.55698953     0.02600
C758        C  0.77767143  0.27452405  0.53727275    -0.09600
C759        C  0.77879503  0.27458266  0.49897783     0.05000
C760        C  0.75154592  0.24319910  0.97938994    -0.09000
H761        H  0.70275013  0.18438447  0.54971600     0.10600
H762        H  0.79800989  0.30027333  0.55101968     0.08200
H763        H  0.75201784  0.24362454  0.94969065     0.08000
C764        C  0.74848010  0.47584618  0.65734018     0.05100
C765        C  0.75000178  0.47824401  0.61896455    -0.11100
C766        C  0.71859695  0.47432746  0.59840064     0.02600
C767        C  0.68599579  0.46854573  0.61806935    -0.09600
C768        C  0.68545314  0.46839664  0.65641326     0.05000
C769        C  0.71645797  0.47151412  0.67597880    -0.09000
H770        H  0.77602527  0.48351400  0.60577173     0.10600
H771        H  0.66057188  0.46399559  0.60422676     0.08200
H772        H  0.71573537  0.47072459  0.70566839     0.08000
C773        C  0.74764838  0.47422086  0.49804084     0.05100
C774        C  0.74683463  0.47191125  0.53644372    -0.11100
C775        C  0.71967089  0.47639813  0.55702500     0.02600
C776        C  0.69321742  0.48274228  0.53735905    -0.09600
C777        C  0.69274794  0.48276242  0.49902271     0.05000
C778        C  0.72024356  0.47902336  0.97946916    -0.09000
H779        H  0.76736496  0.46630293  0.54961956     0.10600
H780        H  0.67268007  0.48780356  0.55118990     0.08200
H781        H  0.72024899  0.47975234  0.94977514     0.08000
C782        C  0.98345211  0.23854592  0.65727438     0.05100
C783        C  0.98109874  0.23768254  0.61887677    -0.11100
C784        C  0.98557435  0.21050603  0.59831303     0.02600
C785        C  0.99191329  0.18405819  0.61799807    -0.09600
C786        C  0.99198123  0.18364128  0.65633909     0.05000
C787        C  0.98824824  0.21114570  0.67587376    -0.09000
H788        H  0.97547115  0.25819565  0.60569001     0.10600
H789        H  0.99693958  0.16350030  0.60418659     0.07400
H790        H  0.98901144  0.21118979  0.70556821     0.08000
C791        C  0.98502313  0.23931782  0.49799630     0.05100
C792        C  0.98742413  0.24083434  0.53637140    -0.11100
C793        C  0.98351261  0.20943178  0.55693464     0.02600
C794        C  0.97775289  0.17684204  0.53726203    -0.09600
C795        C  0.97759848  0.17630503  0.49891501     0.05000
C796        C  0.98065641  0.20726850  0.97934388    -0.09000
H797        H  0.99269472  0.26685829  0.54956376     0.10600
H798        H  0.97322677  0.15143457  0.55109667     0.08200
H799        H  0.97985025  0.20653806  0.94965446     0.08000
O800        O  0.51726653  0.39222717  0.86940989    -0.86300
C801        C  0.59494431  0.08673215  0.77438571     1.13800
O802        O  0.98520183  0.43627182  0.82763756    -1.34100
O803        O  0.60275682  0.06116171  0.86675036    -0.87700
O804        O  0.95336713  0.36037096  0.86992191    -0.88400
O805        O  0.94605925  0.43684733  0.90426063    -0.77200
O806        O  0.56136242  0.47668865  0.86174295    -0.99300
C807        C  0.98383235  0.04389315  0.89532767     1.23800
O808        O  0.94544786  0.47604489  0.82765731    -1.34200
Mn809      Mn  0.98517461  0.47619601  0.78828489     1.82100
O810        O  0.98485724  0.01476446  0.90461113    -0.76300
O811        O  0.56909133  0.09117079  0.87067012    -0.85700
C812        C  0.98666725  0.04603776  0.76098060     1.14900
C813        C  0.59596673  0.08574953  0.88093824     1.09600
O814        O  0.94604825  0.43694272  0.75101877    -0.77200
O815        O  0.52502404  0.01584123  0.82766296    -1.30900
O816        O  0.90997794  0.40023863  0.79297065    -0.96500
C817        C  0.87400611  0.47544023  0.87987197     1.08400
Mn818      Mn  0.52802349  0.06993185  0.82891143     1.48600
O819        O  0.86805248  0.44371367  0.86740314    -0.85600
Mn820      Mn  0.93402092  0.38215803  0.82826602     1.49600
O821        O  0.51667888  0.39080605  0.78721424    -0.89500
C822        C  0.55516630  0.47743877  0.89434641     1.21500
C823        C  0.98461063  0.36487729  0.77537432     1.13600
Mn824      Mn  0.98534559  0.47598706  0.86701882     1.81000
O825        O  0.98590905  0.05221241  0.79358708    -0.94700
Mn826      Mn  0.53627095  0.43321289  0.82774756     1.49300
C827        C  0.98541495  0.36673907  0.88207164     1.10100
Mn828      Mn  0.94241301  0.02712119  0.82756050     1.49900
C829        C  0.87597407  0.47630525  0.77318752     1.13000
O830        O  0.90936401  0.40078637  0.86229591    -1.00500
O831        O  0.57037938  0.09355729  0.78857504    -0.90100
C832        C  0.91587354  0.40778164  0.89484239     1.24300
O833        O  0.98453832  0.05101041  0.86281916    -1.00900
O834        O  0.60034878  0.05985336  0.78466301    -0.88300
O835        O  0.90145077  0.00814598  0.78587908    -0.87900
O836        O  0.95287703  0.35892001  0.78783256    -0.87900
Mn837      Mn  0.57910356  0.01880584  0.82641882     1.47900
O838        O  0.98570962  0.01597058  0.75132067    -0.76400
C839        C  0.91698410  0.40675440  0.76042798     1.17400
O840        O  0.52509773  0.47649140  0.90399150    -0.75100
O841        O  0.52395436  0.47570667  0.75070314    -0.74700
Mn842      Mn  0.89132672  0.42487204  0.82699152     1.51100
O843        O  0.89996831  0.00751217  0.86807006    -0.87100
O844        O  0.56017490  0.47533731  0.79249999    -0.94600
O845        O  0.86959192  0.44425104  0.78532165    -0.89600
C846        C  0.55306439  0.47464598  0.75998948     1.15200
C847        C  0.97579461  0.14439756  0.97957778    -0.16600
C848        C  0.97642456  0.11904979  0.96284736     0.07500
C849        C  0.97876116  0.09098744  0.94186528     0.09300
C850        C  0.98125764  0.06854908  0.92200808    -0.17400
C851        C  0.98663604  0.27044382  0.97737108    -0.16600
C852        C  0.98682112  0.29484570  0.95828442     0.07500
C853        C  0.98628820  0.32161423  0.93381979     0.09300
C854        C  0.98572756  0.34299592  0.91114827    -0.17400
C855        C  0.99433462  0.15392705  0.67579444    -0.16600
C856        C  0.99401470  0.12833632  0.69296290     0.07500
C857        C  0.99182914  0.09831692  0.71447730     0.09300
C858        C  0.98932251  0.07349583  0.73451767    -0.17400
C859        C  0.98156167  0.26780473  0.67810416    -0.16600
C860        C  0.98166132  0.29163357  0.69801042     0.07500
C861        C  0.98288643  0.31850280  0.72350542     0.09300
C862        C  0.98403475  0.34037260  0.74659752    -0.17400
C863        C  0.77691804  0.47236323  0.97718062    -0.16600
C864        C  0.80071986  0.47245767  0.95723170     0.07500
C865        C  0.82757565  0.47368772  0.93170804     0.09300
C866        C  0.84946125  0.47484967  0.90862141    -0.17400
C867        C  0.58260062  0.48007216  0.92082771    -0.16600
C868        C  0.60740105  0.48256769  0.94089290     0.07500
C869        C  0.63741065  0.48475586  0.96242705     0.09300
C870        C  0.66301278  0.48509281  0.97959200    -0.17400
C871        C  0.77965820  0.47754032  0.67794076    -0.16600
C872        C  0.80407933  0.47773712  0.69700553     0.07500
C873        C  0.83086782  0.47720629  0.72144133     0.09300
C874        C  0.85225286  0.47663791  0.74410262    -0.17400
C875        C  0.57770609  0.47205250  0.73330509    -0.16600
C876        C  0.60012889  0.46954266  0.71343579     0.07500
C877        C  0.62818863  0.46720147  0.69245345     0.09300
C878        C  0.65354810  0.46657982  0.67573539    -0.17400
C879        C  0.80877638  0.30659187  0.97972615    -0.16600
C880        C  0.83447427  0.33209705  0.96290011     0.07500
C881        C  0.86437345  0.36031391  0.94162155     0.09300
C882        C  0.88888970  0.38287934  0.92152017    -0.17400
C883        C  0.69437064  0.18011367  0.97715278    -0.16600
C884        C  0.67034328  0.15616766  0.95753522     0.07500
C885        C  0.64303555  0.13017525  0.93253157     0.09300
C886        C  0.62076836  0.10933050  0.90973882    -0.17400
C887        C  0.81580021  0.29957790  0.67564443    -0.16600
C888        C  0.84130632  0.32530125  0.69243976     0.07500
C889        C  0.86953152  0.35523343  0.71367228     0.09300
C890        C  0.89209845  0.37977103  0.73374963    -0.17400
C891        C  0.68942872  0.18503329  0.67821359    -0.16600
C892        C  0.66545891  0.16100394  0.69780527     0.07500
C893        C  0.63941195  0.13372389  0.72278454     0.09300
C894        C  0.61852911  0.11149498  0.74557529    -0.17400
C895        C  0.72059829  0.71430780  0.15739229     0.05100
C896        C  0.71950894  0.71447984  0.11893943    -0.11100
C897        C  0.75123993  0.74154645  0.09839033     0.02600
C898        C  0.78373567  0.76848600  0.11810016    -0.09600
C899        C  0.78382209  0.76957549  0.15639650     0.05000
C900        C  0.75247549  0.74226779  0.17598891    -0.09000
H901        H  0.69363531  0.69348805  0.10567065     0.10600
H902        H  0.80946219  0.78886358  0.10434462     0.08200
H903        H  0.75292198  0.74271299  0.20568816     0.08000
C904        C  0.72359611  0.71131398  0.99798852     0.05100
C905        C  0.72374207  0.71025244  0.03644408    -0.11100
C906        C  0.75075972  0.74201894  0.05698882     0.02600
C907        C  0.77766342  0.77453001  0.03727379    -0.09600
C908        C  0.77879330  0.77458849  0.99897867     0.05000
C909        C  0.75153412  0.74320086  0.47939054    -0.09000
H910        H  0.70276987  0.68437347  0.04971730     0.10600
H911        H  0.79798995  0.80028311  0.05102443     0.08200
H912        H  0.75200151  0.74362685  0.44969116     0.08000
C913        C  0.74844510  0.97579002  0.15735478     0.05100
C914        C  0.74997907  0.97820344  0.11897963    -0.11100
C915        C  0.71858982  0.97431884  0.09840922     0.02600
C916        C  0.68599110  0.96855139  0.11807504    -0.09600
C917        C  0.68543622  0.96838342  0.15641917     0.05000
C918        C  0.71642576  0.97147041  0.17598856    -0.09000
H919        H  0.77600175  0.98346175  0.10579389     0.10600
H920        H  0.66057610  0.96402564  0.10423175     0.08200
H921        H  0.71569431  0.97066880  0.20567813     0.08000
C922        C  0.74768010  0.97426450  0.99804765     0.05100
C923        C  0.74685818  0.97194483  0.03645088    -0.11100
C924        C  0.71967706  0.97640654  0.05703139     0.02600
C925        C  0.69321743  0.98273922  0.03736094    -0.09600
C926        C  0.69275798  0.98277142  0.99902418     0.05000
C927        C  0.72021912  0.97899128  0.47946486    -0.09000
H928        H  0.76739494  0.96634631  0.04962536     0.10600
H929        H  0.67266516  0.98778172  0.05118690     0.08200
H930        H  0.72021925  0.97971406  0.44977041     0.08000
C931        C  0.98349321  0.73857793  0.15726569     0.05100
C932        C  0.98113002  0.73770564  0.11886777    -0.11100
C933        C  0.98558187  0.71051226  0.09830557     0.02600
C934        C  0.99191049  0.68405935  0.11799579    -0.09600
C935        C  0.99199013  0.68365300  0.15633727     0.05000
C936        C  0.98827902  0.71117262  0.17586790    -0.09000
H937        H  0.97551129  0.75822465  0.10568150     0.10600
H938        H  0.99691902  0.66348731  0.10418990     0.07400
H939        H  0.98904884  0.71122314  0.20556206     0.08000
C940        C  0.98496713  0.73928117  0.99798000     0.05100
C941        C  0.98738312  0.74081058  0.03635465    -0.11100
C942        C  0.98350353  0.70942397  0.05692502     0.02600
C943        C  0.97775855  0.67683644  0.03725608    -0.09600
C944        C  0.97758582  0.67628669  0.99890880     0.05000
C945        C  0.98069928  0.70730190  0.47935454    -0.09000
H946        H  0.99264155  0.76683352  0.04953930     0.10600
H947        H  0.97325677  0.65143838  0.05109192     0.08200
H948        H  0.97990463  0.70658039  0.44966423     0.08000
O949        O  0.51729560  0.89225273  0.36942319    -0.86300
C950        C  0.59493375  0.58675633  0.27440118     1.13800
O951        O  0.98520883  0.93628050  0.32765248    -1.34100
O952        O  0.60274251  0.56118013  0.36676502    -0.87700
O953        O  0.95339803  0.86038557  0.36994570    -0.88400
O954        O  0.94606708  0.93685280  0.40427879    -0.77200
O955        O  0.56136738  0.97671127  0.36175443    -0.99300
C956        C  0.98381347  0.54389238  0.39533866     1.23800
O957        O  0.94543898  0.97603755  0.32767270    -1.34200
Mn958      Mn  0.98516731  0.97619761  0.28829874     1.82100
O959        O  0.98484738  0.51476883  0.40462362    -0.76300
O960        O  0.56906577  0.59117767  0.37068339    -0.85700
C961        C  0.98664626  0.54603510  0.26099151     1.14900
C962        C  0.59594307  0.58576093  0.38095389     1.09600
O963        O  0.94604176  0.93693516  0.25103696    -0.77200
O964        O  0.52501561  0.51585047  0.32767421    -1.30900
O965        O  0.90998138  0.90022476  0.29299119    -0.96500
C966        C  0.87399396  0.97541506  0.37988943     1.08400
Mn967      Mn  0.52800214  0.56993537  0.32892290     1.48600
O968        O  0.86805006  0.94369044  0.36742574    -0.85600
Mn969      Mn  0.93403816  0.88215821  0.32828714     1.49600
O970        O  0.51670222  0.89082742  0.28722675    -0.89500
C971        C  0.55517036  0.97745915  0.39435802     1.21500
C972        C  0.98463518  0.86489017  0.27539000     1.13600
Mn973      Mn  0.98534396  0.97599389  0.36703272     1.81000
O974        O  0.98588560  0.55220863  0.29359788    -0.94700
Mn975      Mn  0.53628657  0.93323541  0.32775966     1.49300
C976        C  0.98545076  0.86676347  0.38209086     1.10100
Mn977      Mn  0.94238961  0.52710613  0.32757189     1.49900
C978        C  0.87594948  0.97626956  0.27320774     1.13000
O979        O  0.90937768  0.90078193  0.36231659    -1.00500
O980        O  0.57036127  0.59357181  0.28858875    -0.90100
C981        C  0.91588719  0.90778026  0.39486239     1.24300
O982        O  0.98451471  0.55100573  0.36282967    -1.00900
O983        O  0.60034321  0.55987998  0.28467703    -0.88300
O984        O  0.90142414  0.50811594  0.28589166    -0.87900
O985        O  0.95289966  0.85892296  0.28785355    -0.87900
Mn986      Mn  0.57910079  0.51882788  0.32643074     1.47900
O987        O  0.98569145  0.51596855  0.25133269    -0.76400
C988        C  0.91698417  0.90674113  0.26044783     1.17400
O989        O  0.52510092  0.97650861  0.40400416    -0.75100
O990        O  0.52395251  0.97571702  0.25071620    -0.74700
Mn991      Mn  0.89132619  0.92485440  0.32701339     1.51100
O992        O  0.89994617  0.50748921  0.36808192    -0.87100
O993        O  0.56018124  0.97536009  0.29251129    -0.94600
O994        O  0.86957660  0.94422020  0.28534679    -0.89600
C995        C  0.55306709  0.97466433  0.26000123     1.15200
C996        C  0.97579506  0.64441176  0.47958140    -0.16600
C997        C  0.97641812  0.61905999  0.46285211     0.07500
C998        C  0.97874859  0.59099269  0.44187295     0.09300
C999        C  0.98124080  0.56855052  0.42201783    -0.17400
C1000       C  0.98671096  0.77049143  0.47739236    -0.16600
C1001       C  0.98689747  0.79489556  0.45830837     0.07500
C1002       C  0.98635277  0.82165789  0.43384379     0.09300
C1003       C  0.98577733  0.84303026  0.41117039    -0.17400
C1004       C  0.99433167  0.65393351  0.17579812    -0.16600
C1005       C  0.99400415  0.62834034  0.19297056     0.07500
C1006       C  0.99181262  0.59831836  0.21448760     0.09300
C1007       C  0.98930275  0.57349495  0.23452800    -0.17400
C1008       C  0.98161253  0.76784381  0.17809529    -0.16600
C1009       C  0.98171039  0.79166864  0.19800767     0.07500
C1010       C  0.98292587  0.81852753  0.22351234     0.09300
C1011       C  0.98406525  0.84038911  0.24661040    -0.17400
C1012       C  0.77688032  0.97230901  0.47717549    -0.16600
C1013       C  0.80068659  0.97240575  0.45723298     0.07500
C1014       C  0.82755284  0.97364660  0.43171849     0.09300
C1015       C  0.84944631  0.97481835  0.40863700    -0.17400
C1016       C  0.58260369  0.98009226  0.42083856    -0.16600
C1017       C  0.60740280  0.98258546  0.44090300     0.07500
C1018       C  0.63741057  0.98476810  0.46243394     0.09300
C1019       C  0.66301008  0.98509704  0.47959507    -0.17400
C1020       C  0.77961240  0.97746607  0.17796061    -0.16600
C1021       C  0.80403111  0.97766150  0.19702841     0.07500
C1022       C  0.83082516  0.97714227  0.22146510     0.09300
C1023       C  0.85221884  0.97658846  0.24412525    -0.17400
C1024       C  0.57770634  0.97206824  0.23331571    -0.16600
C1025       C  0.60012499  0.96955368  0.21344424     0.07500
C1026       C  0.62817936  0.96720597  0.19245868     0.09300
C1027       C  0.65353466  0.96657751  0.17573911    -0.17400
C1028       C  0.80878339  0.80657912  0.47972586    -0.16600
C1029       C  0.83448661  0.83208460  0.46290636     0.07500
C1030       C  0.86439055  0.86030588  0.44163733     0.09300
C1031       C  0.88890787  0.88287561  0.42154054    -0.17400
C1032       C  0.69434263  0.68012804  0.47716059    -0.16600
C1033       C  0.67030899  0.65618109  0.45754999     0.07500
C1034       C  0.64299975  0.63018573  0.43255146     0.09300
C1035       C  0.62073626  0.60933988  0.40975820    -0.17400
C1036       C  0.81581256  0.79957244  0.17564179    -0.16600
C1037       C  0.84131758  0.82529098  0.19244399     0.07500
C1038       C  0.86953760  0.85521830  0.21368688     0.09300
C1039       C  0.89210015  0.87975414  0.23376950    -0.17400
C1040       C  0.68941539  0.68506056  0.17822025    -0.16600
C1041       C  0.66544657  0.66103767  0.19781912     0.07500
C1042       C  0.63940249  0.63375950  0.22280379     0.09300
C1043       C  0.61852064  0.61152726  0.24559425    -0.17400
C1044       C  0.72060581  0.71428972  0.65739012     0.05100
C1045       C  0.71951573  0.71446649  0.61893834    -0.11100
C1046       C  0.75123972  0.74154569  0.59839040     0.02600
C1047       C  0.78372814  0.76849478  0.61810263    -0.09600
C1048       C  0.78381367  0.76957777  0.65639880     0.05000
C1049       C  0.75247519  0.74225663  0.67598953    -0.09000
H1050       H  0.69364533  0.69346699  0.60567142     0.10600
H1051       H  0.80945040  0.78888423  0.60435184     0.08200
H1052       H  0.75292164  0.74269724  0.70568892     0.08000
C1053       C  0.72358016  0.71132263  0.49798998     0.05100
C1054       C  0.72372984  0.71025989  0.53644444    -0.11100
C1055       C  0.75075911  0.74201946  0.55698872     0.02600
C1056       C  0.77767217  0.77452375  0.53727191    -0.09600
C1057       C  0.77879672  0.77458196  0.49897708     0.05000
C1058       C  0.75154309  0.74319947  0.97939125    -0.09000
H1059       H  0.70274996  0.68438375  0.54971524     0.10600
H1060       H  0.79801028  0.80027341  0.55101875     0.08200
H1061       H  0.75201429  0.74362515  0.94969150     0.08000
C1062       C  0.74848250  0.97585055  0.65734018     0.05100
C1063       C  0.75000364  0.97824713  0.61896447    -0.11100
C1064       C  0.71859829  0.97432933  0.59840056     0.02600
C1065       C  0.68599725  0.96854769  0.61806929    -0.09600
C1066       C  0.68545508  0.96839999  0.65641311     0.05000
C1067       C  0.71646038  0.97151866  0.67597876    -0.09000
H1068       H  0.77602714  0.98351702  0.60577145     0.10600
H1069       H  0.66057264  0.96399643  0.60422649     0.08200
H1070       H  0.71573809  0.97073001  0.70566826     0.08000
C1071       C  0.74764805  0.97421951  0.49804090     0.05100
C1072       C  0.74683484  0.97191095  0.53644382    -0.11100
C1073       C  0.71967151  0.97639856  0.55702493     0.02600
C1074       C  0.69321778  0.98274216  0.53735884    -0.09600
C1075       C  0.69274760  0.98276095  0.49902254     0.05000
C1076       C  0.72024547  0.97902561  0.97946976    -0.09000
H1077       H  0.76736545  0.96630310  0.54961991     0.10600
H1078       H  0.67268074  0.98780409  0.55118963     0.08200
H1079       H  0.72025194  0.97975601  0.94977522     0.08000
C1080       C  0.98344996  0.73854587  0.65727280     0.05100
C1081       C  0.98109709  0.73768215  0.61887522    -0.11100
C1082       C  0.98557461  0.71050655  0.59831208     0.02600
C1083       C  0.99191495  0.68405998  0.61799764    -0.09600
C1084       C  0.99198198  0.68364296  0.65633860     0.05000
C1085       C  0.98824706  0.71114651  0.67587285    -0.09000
H1086       H  0.97546855  0.75819462  0.60568772     0.10600
H1087       H  0.99694296  0.66350271  0.60418622     0.07400
H1088       H  0.98900973  0.71119074  0.70556681     0.08000
C1089       C  0.98502533  0.73931752  0.49799480     0.05100
C1090       C  0.98742549  0.74083434  0.53636997    -0.11100
C1091       C  0.98351349  0.70943196  0.55693378     0.02600
C1092       C  0.97775397  0.67684193  0.53726191    -0.09600
C1093       C  0.97760051  0.67630464  0.49891489     0.05000
C1094       C  0.98065377  0.70726848  0.97934451    -0.09000
H1095       H  0.99269591  0.76685852  0.54956210     0.10600
H1096       H  0.97322741  0.65143480  0.55109705     0.08200
H1097       H  0.97984678  0.70653802  0.94965460     0.08000
O1098       O  0.51726574  0.89222691  0.86940964    -0.86300
C1099       C  0.59494426  0.58673238  0.77438607     1.13800
O1100       O  0.98520140  0.93627047  0.82763756    -1.34100
O1101       O  0.60275611  0.56116165  0.86675142    -0.87700
O1102       O  0.95336534  0.86036894  0.86992040    -0.88400
O1103       O  0.94605851  0.93684496  0.90426052    -0.77200
O1104       O  0.56136259  0.97668858  0.86174255    -0.99300
C1105       C  0.98383120  0.54389468  0.89532633     1.23800
O1106       O  0.94544811  0.97604409  0.82765777    -1.34200
Mn1107     Mn  0.98517504  0.97619521  0.78828530     1.82100
O1108       O  0.98485705  0.51476656  0.90461011    -0.76300
O1109       O  0.56909082  0.59117100  0.87067035    -0.85700
C1110       C  0.98666633  0.54603818  0.76097938     1.14900
C1111       C  0.59596587  0.58574946  0.88093908     1.09600
O1112       O  0.94604855  0.93694284  0.75101867    -0.77200
O1113       O  0.52502389  0.51584142  0.82766318    -1.30900
O1114       O  0.90997737  0.90023871  0.79297005    -0.96500
C1115       C  0.87400668  0.97543975  0.87987296     1.08400
Mn1116     Mn  0.52802315  0.56993196  0.82891159     1.48600
O1117       O  0.86805244  0.94371318  0.86740356    -0.85600
Mn1118     Mn  0.93401988  0.88215708  0.82826496     1.49600
O1119       O  0.51667860  0.89080580  0.78721399    -0.89500
C1120       C  0.55516677  0.97743904  0.89434605     1.21500
C1121       C  0.98460979  0.86487662  0.77537359     1.13600
Mn1122     Mn  0.98534540  0.97598525  0.86701927     1.81000
O1123       O  0.98590807  0.55221298  0.79358579    -0.94700
Mn1124     Mn  0.53627068  0.93321263  0.82774725     1.49300
C1125       C  0.98541284  0.86673742  0.88207140     1.10100
Mn1126     Mn  0.94241202  0.52712162  0.82755917     1.49900
C1127       C  0.87597475  0.97630654  0.77318838     1.13000
O1128       O  0.90936296  0.90078495  0.86229540    -1.00500
O1129       O  0.57037907  0.59355737  0.78857506    -0.90100
C1130       C  0.91587252  0.90777964  0.89484199     1.24300
O1131       O  0.98453727  0.55101177  0.86281777    -1.00900
O1132       O  0.60034894  0.55985387  0.78466384    -0.88300
O1133       O  0.90144972  0.50814512  0.78587777    -0.87900
O1134       O  0.95287609  0.85891989  0.78783094    -0.87900
Mn1135     Mn  0.57910343  0.51880612  0.82641946     1.47900
O1136       O  0.98570849  0.51597082  0.75131972    -0.76400
C1137       C  0.91698360  0.90675505  0.76042747     1.17400
O1138       O  0.52509785  0.97649102  0.90399121    -0.75100
O1139       O  0.52395448  0.97570678  0.75070276    -0.74700
Mn1140     Mn  0.89132641  0.92487178  0.82699145     1.51100
O1141       O  0.89996730  0.50751268  0.86806868    -0.87100
O1142       O  0.56017481  0.97533695  0.79249955    -0.94600
O1143       O  0.86959208  0.94425195  0.78532197    -0.89600
C1144       C  0.55306440  0.97464590  0.75998905     1.15200
C1145       C  0.97579083  0.64439713  0.97957736    -0.16600
C1146       C  0.97642032  0.61904948  0.96284628     0.07500
C1147       C  0.97875735  0.59098766  0.94186371     0.09300
C1148       C  0.98125492  0.56854996  0.92200647    -0.17400
C1149       C  0.98663389  0.77044389  0.97737246    -0.16600
C1150       C  0.98681845  0.79484548  0.95828581     0.07500
C1151       C  0.98628516  0.82161339  0.93382075     0.09300
C1152       C  0.98572466  0.84299456  0.91114861    -0.17400
C1153       C  0.99433601  0.65392927  0.67579435    -0.16600
C1154       C  0.99401590  0.62833832  0.69296260     0.07500
C1155       C  0.99182952  0.59831817  0.71447641     0.09300
C1156       C  0.98932211  0.57349645  0.73451637    -0.17400
C1157       C  0.98155892  0.76780460  0.67810205    -0.16600
C1158       C  0.98165898  0.79163367  0.69800821     0.07500
C1159       C  0.98288509  0.81850303  0.72350357     0.09300
C1160       C  0.98403399  0.84037260  0.74659620    -0.17400
C1161       C  0.77691927  0.97236414  0.97718161    -0.16600
C1162       C  0.80072107  0.97245821  0.95723291     0.07500
C1163       C  0.82757665  0.97368768  0.93170930     0.09300
C1164       C  0.84946202  0.97484928  0.90862258    -0.17400
C1165       C  0.58260198  0.98007380  0.92082723    -0.16600
C1166       C  0.60740305  0.98257030  0.94089225     0.07500
C1167       C  0.63741290  0.98475882  0.96242653     0.09300
C1168       C  0.66301473  0.98509537  0.97959186    -0.17400
C1169       C  0.77966078  0.97754517  0.67794095    -0.16600
C1170       C  0.80408160  0.97774166  0.69700606     0.07500
C1171       C  0.83086940  0.97720979  0.72144221     0.09300
C1172       C  0.85225386  0.97664028  0.74410358    -0.17400
C1173       C  0.57770655  0.97205339  0.73330455    -0.16600
C1174       C  0.60012985  0.96954457  0.71343513     0.07500
C1175       C  0.62819012  0.96720431  0.69245285     0.09300
C1176       C  0.65354993  0.96658308  0.67573505    -0.17400
C1177       C  0.80877440  0.80659171  0.97972693    -0.16600
C1178       C  0.83447254  0.83209621  0.96290041     0.07500
C1179       C  0.86437200  0.86031217  0.94162126     0.09300
C1180       C  0.88888840  0.88287717  0.92151964    -0.17400
C1181       C  0.69436818  0.68011365  0.97715445    -0.16600
C1182       C  0.67034084  0.65616741  0.95753706     0.07500
C1183       C  0.64303346  0.63017480  0.93253331     0.09300
C1184       C  0.62076683  0.60933011  0.90974018    -0.17400
C1185       C  0.81579751  0.79958033  0.67564414    -0.16600
C1186       C  0.84130344  0.82530411  0.69243921     0.07500
C1187       C  0.86952916  0.85523614  0.71367141     0.09300
C1188       C  0.89209697  0.87977302  0.73374878    -0.17400
C1189       C  0.68942856  0.68503216  0.67821269    -0.16600
C1190       C  0.66545886  0.66100286  0.69780457     0.07500
C1191       C  0.63941192  0.63372333  0.72278429     0.09300
C1192       C  0.61852905  0.61149494  0.74557541    -0.17400
loop_ 
_geom_bond_atom_site_label_1 
_geom_bond_atom_site_label_2 
_geom_bond_distance 
_geom_bond_site_symmetry_2 
_ccdc_geom_bond_type 
C1            C2   1.404       .  A
C1            C6   1.397       .  A
C1          C146   1.443       .  S
C2            C3   1.418       .  A
C2            H7   1.080       .  S
C3            C4   1.417       .  A
C3           C12   1.511       .  S
C4            C5   1.398       .  A
C4            H8   1.077       .  S
C5            C6   1.395       .  A
C5          C142   1.441       .  S
C6            H9   1.084       .  S
C10          C11   1.404   1_556  A
C10         C164   1.397       .  A
C10         C287   1.444       .  S
C11          C12   1.418       .  A
C11          H16   1.080       .  S
C12          C13   1.417       .  A
C13          C14   1.398   1_554  A
C13          H17   1.077       .  S
C14         C164   1.395       .  A
C14         C283   1.441       .  S
C15         C159   1.397       .  A
C15         C163   1.395       .  A
C15          H18   1.084       .  S
C19          C20   1.403       .  A
C19          C24   1.397       .  A
C19         C126   1.443       .  S
C20          C21   1.417       .  A
C20          H25   1.080       .  S
C21          C22   1.417       .  A
C21          C30   1.512       .  S
C22          C23   1.400       .  A
C22          H26   1.078       .  S
C23          C24   1.396       .  A
C23         C133   1.443       .  S
C24          H27   1.084       .  S
C28          C29   1.404   1_556  A
C28         C182   1.396       .  A
C28         C267   1.444       .  S
C29          C30   1.419       .  A
C29          H34   1.080       .  S
C30          C31   1.417       .  A
C31          C32   1.399   1_554  A
C31          H35   1.078       .  S
C32         C182   1.395       .  A
C32         C274   1.442       .  S
C33         C177   1.396       .  A
C33         C181   1.395       .  A
C33          H36   1.084       .  S
C37          C38   1.404       .  A
C37          C42   1.396       .  A
C37         C114   1.444       .  S
C38          C39   1.418       .  A
C38          H43   1.080       .  S
C39          C40   1.417       .  A
C39          C48   1.512       .  S
C40          C41   1.400       .  A
C40          H44   1.078       .  S
C41          C42   1.395       .  A
C41         C110   1.442       .  S
C42          H45   1.084       .  S
C46          C47   1.403   1_556  A
C46         C200   1.397       .  A
C46         C255   1.443       .  S
C47          C48   1.417       .  A
C47          H52   1.080       .  S
C48          C49   1.417       .  A
C49          C50   1.400   1_554  A
C49          H53   1.078       .  S
C50         C200   1.396       .  A
C50         C251   1.443       .  S
C51         C195   1.397       .  A
C51         C199   1.396       .  A
C51          H54   1.084       .  S
O55         Mn81   2.095       .  S
O55         C678   1.271   1_455  A
C56         C149   1.438       .  S
C56          O89   1.271       .  A
C56          O86   1.270       .  A
O57         Mn64   2.165       .  S
O57         Mn75   2.137       .  S
O57         Mn79   2.157       .  S
O57        Mn677   2.136       .  S
O58         Mn92   2.095       .  S
O58          C68   1.270       .  A
O59         Mn75   2.098       .  S
O59          C82   1.271       .  A
O60         Mn79   2.092       .  S
O60          C87   1.250       .  A
O61         Mn81   1.972       .  S
O61        Mn390   1.967       .  S
O61          C77   1.220       .  S
C62         C105   1.437       .  S
C62          O65   1.250       .  A
C62          O88   1.218       .  S
O63         Mn64   2.157       .  S
O63         Mn97   2.137       .  S
O63         Mn79   2.165       .  S
O63        Mn381   2.136       .  S
Mn64         O69   2.092       .  S
Mn64        O391   2.095       .  S
Mn64        O692   2.095       .  S
Mn64        O964   2.159       .  S
O65        Mn377   2.095   1_545  S
O66         Mn73   2.098       .  S
O66          C68   1.271       .  A
C67         C113   1.437       .  S
C67          O93   1.251       .  A
C67          O80   1.220       .  S
C68         C141   1.438       .  S
O69          C94   1.250       .  A
O70         Mn73   2.136       .  S
O70         Mn92   2.136       .  S
O70        Mn958   2.159   1_445  S
O70        Mn973   2.159   1_445  S
O71         Mn75   1.965       .  S
O71         Mn97   1.967       .  S
O71          C94   1.219       .  S
C72         C121   1.438       .  S
C72          O74   1.269       .  A
C72         O396   1.271       .  A
Mn73         O86   2.095       .  S
Mn73        O684   1.969   1_455  S
Mn73        O676   1.967   1_455  S
O74         Mn97   2.091       .  S
Mn75         O91   2.091       .  S
Mn75         O85   1.967       .  S
O76         Mn81   2.100       .  S
O76         C674   1.271   1_455  A
C77         C122   1.437       .  S
C77          O95   1.251       .  A
C78         C117   1.438       .  S
C78          O91   1.269       .  A
C78         O672   1.271       .  A
Mn79        O363   2.095       .  S
Mn79        O691   2.094       .  S
Mn79        O964   2.159       .  S
O80         Mn83   1.972       .  S
O80        Mn669   1.967       .  S
Mn81        O653   2.136   1_455  S
Mn81         O99   1.964       .  S
C82         C109   1.437       .  S
C82         O651   1.271       .  A
Mn83         O90   2.094       .  S
Mn83         O98   2.101       .  S
Mn83        O361   2.136   1_545  S
Mn83         O88   1.964       .  S
C84         C129   1.437       .  S
C84         O100   1.271       .  A
C84         O388   1.271       .  A
O85         Mn97   1.966       .  S
O85          C87   1.219       .  S
C87         C137   1.435       .  S
O88        Mn669   1.969       .  S
O89         Mn92   2.098       .  S
O90         C382   1.271   1_545  A
Mn92        O359   1.967   1_545  S
Mn92        O397   1.969   1_545  S
O93        Mn362   2.095   1_545  S
C94         C145   1.435       .  S
O95        Mn675   2.094   1_455  S
O96        Mn660   2.095   1_455  S
O96         C101   1.250       .  A
Mn97        O100   2.098       .  S
O98         C370   1.271   1_545  A
O99        Mn390   1.969       .  S
O99         C101   1.218       .  S
C101        C130   1.437       .  S
C102        C199   1.443       .  S
C102        C103   1.207       .  T
C103        C104   1.414       .  S
C104        C105   1.207       .  T
C106        C195   1.443       .  S
C106        C107   1.207       .  T
C107        C108   1.414       .  S
C108        C109   1.207       .  T
C110        C111   1.207       .  T
C111        C112   1.414       .  S
C112        C113   1.207       .  T
C114        C115   1.208       .  T
C115        C116   1.415       .  S
C116        C117   1.208       .  T
C118        C177   1.444       .  S
C118        C119   1.208       .  T
C119        C120   1.415       .  S
C120        C121   1.208       .  T
C122        C123   1.207       .  T
C123        C124   1.414       .  S
C124        C125   1.207       .  T
C125        C181   1.442       .  S
C126        C127   1.207       .  T
C127        C128   1.414       .  S
C128        C129   1.207       .  T
C130        C131   1.207       .  T
C131        C132   1.414       .  S
C132        C133   1.207       .  T
C134        C163   1.441       .  S
C134        C135   1.206       .  T
C135        C136   1.412       .  S
C136        C137   1.206       .  T
C138        C159   1.443       .  S
C138        C139   1.208       .  T
C139        C140   1.415       .  S
C140        C141   1.208       .  T
C142        C143   1.206       .  T
C143        C144   1.412       .  S
C144        C145   1.206       .  T
C146        C147   1.208       .  T
C147        C148   1.415       .  S
C148        C149   1.208       .  T
C150        C151   1.404       .  A
C150        C155   1.397       .  A
C150        C295   1.443       .  S
C151        C152   1.418       .  A
C151        H156   1.080       .  S
C152        C153   1.417       .  A
C152        C161   1.511       .  S
C153        C154   1.398       .  A
C153        H157   1.077       .  S
C154        C155   1.395       .  A
C154        C291   1.441       .  S
C155        H158   1.084       .  S
C159        C160   1.404       .  A
C160        C161   1.418       .  A
C160        H165   1.080       .  S
C161        C162   1.417       .  A
C162        C163   1.398       .  A
C162        H166   1.077       .  S
C164        H167   1.084       .  S
C168        C169   1.403       .  A
C168        C173   1.397       .  A
C168        C275   1.443       .  S
C169        C170   1.417       .  A
C169        H174   1.080       .  S
C170        C171   1.417       .  A
C170        C179   1.512       .  S
C171        C172   1.400       .  A
C171        H175   1.078       .  S
C172        C173   1.396       .  A
C172        C282   1.443       .  S
C173        H176   1.084       .  S
C177        C178   1.404       .  A
C178        C179   1.418       .  A
C178        H183   1.080       .  S
C179        C180   1.417       .  A
C180        C181   1.399       .  A
C180        H184   1.078       .  S
C182        H185   1.084       .  S
C186        C187   1.404       .  A
C186        C191   1.396       .  A
C186        C263   1.443       .  S
C187        C188   1.418       .  A
C187        H192   1.080       .  S
C188        C189   1.417       .  A
C188        C197   1.512       .  S
C189        C190   1.399       .  A
C189        H193   1.078       .  S
C190        C191   1.395       .  A
C190        C259   1.442       .  S
C191        H194   1.084       .  S
C195        C196   1.403       .  A
C196        C197   1.417       .  A
C196        H201   1.080       .  S
C197        C198   1.417       .  A
C198        C199   1.400       .  A
C198        H202   1.078       .  S
C200        H203   1.084       .  S
O204       Mn230   2.095       .  S
O204        C827   1.271   1_455  A
C205        C298   1.438       .  S
C205        O238   1.271       .  A
C205        O235   1.270       .  A
O206       Mn213   2.165       .  S
O206       Mn224   2.137       .  S
O206       Mn228   2.157       .  S
O206       Mn826   2.136       .  S
O207       Mn241   2.095       .  S
O207        C217   1.270       .  A
O208       Mn224   2.098       .  S
O208        C231   1.271       .  A
O209       Mn228   2.092       .  S
O209        C236   1.250       .  A
O210       Mn539   1.967       .  S
O210       Mn230   1.972       .  S
O210        C226   1.220       .  S
C211        C254   1.437       .  S
C211        O214   1.250       .  A
C211        O237   1.218       .  S
O212       Mn530   2.136       .  S
O212       Mn213   2.157       .  S
O212       Mn246   2.137       .  S
O212       Mn228   2.165       .  S
Mn213       O540   2.095       .  S
Mn213       O218   2.092       .  S
Mn213       O841   2.095       .  S
Mn213      O1113   2.159       .  S
O214       Mn526   2.095   1_545  S
O215       Mn222   2.098       .  S
O215        C217   1.271       .  A
C216        C262   1.437       .  S
C216        O242   1.251       .  A
C216        O229   1.220       .  S
C217        C290   1.438       .  S
O218        C243   1.250       .  A
O219      Mn1107   2.159   1_445  S
O219       Mn222   2.136       .  S
O219       Mn241   2.136       .  S
O219      Mn1122   2.159   1_445  S
O220       Mn224   1.965       .  S
O220       Mn246   1.967       .  S
O220        C243   1.219       .  S
C221        C270   1.438       .  S
C221        O545   1.271       .  A
C221        O223   1.269       .  A
Mn222       O235   2.095       .  S
Mn222       O833   1.969   1_455  S
Mn222       O825   1.967   1_455  S
O223       Mn246   2.091       .  S
Mn224       O240   2.091       .  S
Mn224       O234   1.967       .  S
O225       Mn230   2.100       .  S
O225        C823   1.271   1_455  A
C226        C271   1.437       .  S
C226        O244   1.251       .  A
C227        C266   1.438       .  S
C227        O821   1.271       .  A
C227        O240   1.269       .  A
Mn228       O512   2.095       .  S
Mn228       O840   2.094       .  S
Mn228      O1113   2.159       .  S
O229       Mn818   1.967       .  S
O229       Mn232   1.972       .  S
Mn230       O802   2.136   1_455  S
Mn230       O248   1.964       .  S
C231        C258   1.437       .  S
C231        O800   1.271       .  A
Mn232       O239   2.094       .  S
Mn232       O247   2.101       .  S
Mn232       O510   2.136   1_545  S
Mn232       O237   1.964       .  S
C233        C278   1.437       .  S
C233        O537   1.271       .  A
C233        O249   1.271       .  A
O234       Mn246   1.966       .  S
O234        C236   1.219       .  S
C236        C286   1.435       .  S
O237       Mn818   1.969       .  S
O238       Mn241   2.098       .  S
O239        C531   1.271   1_545  A
Mn241       O508   1.967   1_545  S
Mn241       O546   1.969   1_545  S
O242       Mn511   2.095   1_545  S
C243        C294   1.435       .  S
O244       Mn824   2.094   1_455  S
O245       Mn809   2.095   1_455  S
O245        C250   1.250       .  A
Mn246       O249   2.098       .  S
O247        C519   1.271   1_545  A
O248       Mn539   1.969       .  S
O248        C250   1.218       .  S
C250        C279   1.437       .  S
C251        C252   1.207       .  T
C252        C253   1.414       .  S
C253        C254   1.207       .  T
C255        C256   1.207       .  T
C256        C257   1.414       .  S
C257        C258   1.207       .  T
C259        C260   1.207       .  T
C260        C261   1.414       .  S
C261        C262   1.207       .  T
C263        C264   1.208       .  T
C264        C265   1.415       .  S
C265        C266   1.208       .  T
C267        C268   1.208       .  T
C268        C269   1.415       .  S
C269        C270   1.208       .  T
C271        C272   1.207       .  T
C272        C273   1.414       .  S
C273        C274   1.207       .  T
C275        C276   1.207       .  T
C276        C277   1.414       .  S
C277        C278   1.207       .  T
C279        C280   1.207       .  T
C280        C281   1.414       .  S
C281        C282   1.207       .  T
C283        C284   1.206       .  T
C284        C285   1.412       .  S
C285        C286   1.206       .  T
C287        C288   1.208       .  T
C288        C289   1.415       .  S
C289        C290   1.208       .  T
C291        C292   1.206       .  T
C292        C293   1.412       .  S
C293        C294   1.206       .  T
C295        C296   1.208       .  T
C296        C297   1.415       .  S
C297        C298   1.207       .  T
C299        C300   1.404       .  A
C299        C304   1.397       .  A
C299        C444   1.443       .  S
C300        C301   1.418       .  A
C300        H305   1.080       .  S
C301        C302   1.417       .  A
C301        C310   1.511       .  S
C302        C303   1.398       .  A
C302        H306   1.077       .  S
C303        C304   1.395       .  A
C303        C440   1.441       .  S
C304        H307   1.084       .  S
C308        C309   1.404   1_556  A
C308        C462   1.397       .  A
C308        C585   1.444       .  S
C309        C310   1.418       .  A
C309        H314   1.080       .  S
C310        C311   1.417       .  A
C311        C312   1.398   1_554  A
C311        H315   1.077       .  S
C312        C462   1.395       .  A
C312        C581   1.441       .  S
C313        C457   1.397       .  A
C313        C461   1.395       .  A
C313        H316   1.084       .  S
C317        C318   1.403       .  A
C317        C322   1.397       .  A
C317        C424   1.443       .  S
C318        C319   1.417       .  A
C318        H323   1.080       .  S
C319        C320   1.417       .  A
C319        C328   1.512       .  S
C320        C321   1.400       .  A
C320        H324   1.078       .  S
C321        C322   1.396       .  A
C321        C431   1.443       .  S
C322        H325   1.084       .  S
C326        C327   1.404   1_556  A
C326        C480   1.396       .  A
C326        C565   1.444       .  S
C327        C328   1.419       .  A
C327        H332   1.080       .  S
C328        C329   1.417       .  A
C329        C330   1.399   1_554  A
C329        H333   1.078       .  S
C330        C480   1.395       .  A
C330        C572   1.442       .  S
C331        C475   1.396       .  A
C331        C479   1.395       .  A
C331        H334   1.084       .  S
C335        C336   1.404       .  A
C335        C340   1.396       .  A
C335        C412   1.444       .  S
C336        C337   1.418       .  A
C336        H341   1.080       .  S
C337        C338   1.417       .  A
C337        C346   1.512       .  S
C338        C339   1.400       .  A
C338        H342   1.078       .  S
C339        C340   1.395       .  A
C339        C408   1.442       .  S
C340        H343   1.084       .  S
C344        C345   1.403   1_556  A
C344        C498   1.397       .  A
C344        C553   1.443       .  S
C345        C346   1.417       .  A
C345        H350   1.080       .  S
C346        C347   1.417       .  A
C347        C348   1.400   1_554  A
C347        H351   1.078       .  S
C348        C498   1.396       .  A
C348        C549   1.443       .  S
C349        C493   1.397       .  A
C349        C497   1.396       .  A
C349        H352   1.084       .  S
O353       Mn379   2.095       .  S
O353        C976   1.271   1_455  A
C354        C447   1.438       .  S
C354        O387   1.271       .  A
C354        O384   1.270       .  A
O355       Mn362   2.165       .  S
O355       Mn373   2.137       .  S
O355       Mn377   2.157       .  S
O355       Mn975   2.136       .  S
O356       Mn390   2.095       .  S
O356        C366   1.270       .  A
O357       Mn373   2.098       .  S
O357        C380   1.271       .  A
O358       Mn377   2.092       .  S
O358        C385   1.250       .  A
O359       Mn379   1.972       .  S
O359        C375   1.220       .  S
C360        C403   1.437       .  S
C360        O363   1.250       .  A
C360        O386   1.218       .  S
O361       Mn362   2.157       .  S
O361       Mn395   2.137       .  S
O361       Mn377   2.165       .  S
Mn362       O367   2.092       .  S
Mn362       O990   2.095       .  S
Mn362       O666   2.159   1_565  S
O364       Mn371   2.098       .  S
O364        C366   1.271       .  A
C365        C411   1.437       .  S
C365        O391   1.251       .  A
C365        O378   1.220       .  S
C366        C439   1.438       .  S
O367        C392   1.250       .  A
O368       Mn660   2.159   1_455  S
O368       Mn371   2.136       .  S
O368       Mn390   2.136       .  S
O368       Mn675   2.159   1_455  S
O369       Mn373   1.965       .  S
O369       Mn395   1.967       .  S
O369        C392   1.219       .  S
C370        C419   1.438       .  S
C370        O372   1.269       .  A
Mn371       O384   2.095       .  S
Mn371       O982   1.969   1_455  S
Mn371       O974   1.967   1_455  S
O372       Mn395   2.091       .  S
Mn373       O389   2.091       .  S
Mn373       O383   1.967       .  S
O374       Mn379   2.100       .  S
O374        C972   1.271   1_455  A
C375        C420   1.437       .  S
C375        O393   1.251       .  A
C376        C415   1.438       .  S
C376        O970   1.271       .  A
C376        O389   1.269       .  A
Mn377       O989   2.094       .  S
Mn377       O666   2.159   1_565  S
O378       Mn967   1.967       .  S
O378       Mn381   1.972       .  S
Mn379       O951   2.136   1_455  S
Mn379       O397   1.964       .  S
C380        C407   1.437       .  S
C380        O949   1.271       .  A
Mn381       O388   2.094       .  S
Mn381       O396   2.101       .  S
Mn381       O386   1.964       .  S
C382        C427   1.437       .  S
C382        O398   1.271       .  A
O383       Mn395   1.966       .  S
O383        C385   1.219       .  S
C385        C435   1.435       .  S
O386       Mn967   1.969       .  S
O387       Mn390   2.098       .  S
C392        C443   1.435       .  S
O393       Mn973   2.094   1_455  S
O394       Mn958   2.095   1_455  S
O394        C399   1.250       .  A
Mn395       O398   2.098       .  S
O397        C399   1.218       .  S
C399        C428   1.437       .  S
C400        C497   1.443       .  S
C400        C401   1.207       .  T
C401        C402   1.414       .  S
C402        C403   1.207       .  T
C404        C493   1.443       .  S
C404        C405   1.207       .  T
C405        C406   1.414       .  S
C406        C407   1.207       .  T
C408        C409   1.207       .  T
C409        C410   1.414       .  S
C410        C411   1.207       .  T
C412        C413   1.208       .  T
C413        C414   1.415       .  S
C414        C415   1.208       .  T
C416        C475   1.444       .  S
C416        C417   1.208       .  T
C417        C418   1.415       .  S
C418        C419   1.208       .  T
C420        C421   1.207       .  T
C421        C422   1.414       .  S
C422        C423   1.207       .  T
C423        C479   1.442       .  S
C424        C425   1.207       .  T
C425        C426   1.414       .  S
C426        C427   1.207       .  T
C428        C429   1.207       .  T
C429        C430   1.414       .  S
C430        C431   1.207       .  T
C432        C461   1.441       .  S
C432        C433   1.206       .  T
C433        C434   1.412       .  S
C434        C435   1.206       .  T
C436        C457   1.443       .  S
C436        C437   1.208       .  T
C437        C438   1.415       .  S
C438        C439   1.208       .  T
C440        C441   1.206       .  T
C441        C442   1.412       .  S
C442        C443   1.206       .  T
C444        C445   1.208       .  T
C445        C446   1.415       .  S
C446        C447   1.208       .  T
C448        C449   1.404       .  A
C448        C453   1.397       .  A
C448        C593   1.443       .  S
C449        C450   1.418       .  A
C449        H454   1.080       .  S
C450        C451   1.417       .  A
C450        C459   1.511       .  S
C451        C452   1.398       .  A
C451        H455   1.077       .  S
C452        C453   1.395       .  A
C452        C589   1.441       .  S
C453        H456   1.084       .  S
C457        C458   1.404       .  A
C458        C459   1.418       .  A
C458        H463   1.080       .  S
C459        C460   1.417       .  A
C460        C461   1.398       .  A
C460        H464   1.077       .  S
C462        H465   1.084       .  S
C466        C467   1.403       .  A
C466        C471   1.397       .  A
C466        C573   1.443       .  S
C467        C468   1.417       .  A
C467        H472   1.080       .  S
C468        C469   1.417       .  A
C468        C477   1.512       .  S
C469        C470   1.400       .  A
C469        H473   1.078       .  S
C470        C471   1.396       .  A
C470        C580   1.443       .  S
C471        H474   1.084       .  S
C475        C476   1.404       .  A
C476        C477   1.418       .  A
C476        H481   1.080       .  S
C477        C478   1.417       .  A
C478        C479   1.399       .  A
C478        H482   1.078       .  S
C480        H483   1.084       .  S
C484        C485   1.404       .  A
C484        C489   1.396       .  A
C484        C561   1.443       .  S
C485        C486   1.418       .  A
C485        H490   1.080       .  S
C486        C487   1.417       .  A
C486        C495   1.512       .  S
C487        C488   1.399       .  A
C487        H491   1.078       .  S
C488        C489   1.395       .  A
C488        C557   1.442       .  S
C489        H492   1.084       .  S
C493        C494   1.403       .  A
C494        C495   1.417       .  A
C494        H499   1.080       .  S
C495        C496   1.417       .  A
C496        C497   1.400       .  A
C496        H500   1.078       .  S
C498        H501   1.084       .  S
O502       Mn528   2.095       .  S
O502       C1125   1.271   1_455  A
C503        C596   1.438       .  S
C503        O536   1.271       .  A
C503        O533   1.270       .  A
O504       Mn511   2.165       .  S
O504       Mn522   2.137       .  S
O504       Mn526   2.157       .  S
O504      Mn1124   2.136       .  S
O505       Mn539   2.095       .  S
O505        C515   1.270       .  A
O506       Mn522   2.098       .  S
O506        C529   1.271       .  A
O507       Mn526   2.092       .  S
O507        C534   1.250       .  A
O508       Mn528   1.972       .  S
O508        C524   1.220       .  S
C509        C552   1.437       .  S
C509        O512   1.250       .  A
C509        O535   1.218       .  S
O510       Mn511   2.157       .  S
O510       Mn544   2.137       .  S
O510       Mn526   2.165       .  S
Mn511       O516   2.092       .  S
Mn511      O1139   2.095       .  S
Mn511       O815   2.159   1_565  S
O513       Mn520   2.098       .  S
O513        C515   1.271       .  A
C514        C560   1.437       .  S
C514        O540   1.251       .  A
C514        O527   1.220       .  S
C515        C588   1.438       .  S
O516        C541   1.250       .  A
O517       Mn809   2.159   1_455  S
O517       Mn520   2.136       .  S
O517       Mn539   2.136       .  S
O517       Mn824   2.159   1_455  S
O518       Mn522   1.965       .  S
O518       Mn544   1.967       .  S
O518        C541   1.219       .  S
C519        C568   1.438       .  S
C519        O521   1.269       .  A
Mn520       O533   2.095       .  S
Mn520      O1131   1.969   1_455  S
Mn520      O1123   1.967   1_455  S
O521       Mn544   2.091       .  S
Mn522       O538   2.091       .  S
Mn522       O532   1.967       .  S
O523       Mn528   2.100       .  S
O523       C1121   1.271   1_455  A
C524        C569   1.437       .  S
C524        O542   1.251       .  A
C525        C564   1.438       .  S
C525       O1119   1.271       .  A
C525        O538   1.269       .  A
Mn526      O1138   2.094       .  S
Mn526       O815   2.159   1_565  S
O527      Mn1116   1.967       .  S
O527       Mn530   1.972       .  S
Mn528      O1100   2.136   1_455  S
Mn528       O546   1.964       .  S
C529        C556   1.437       .  S
C529       O1098   1.271       .  A
Mn530       O537   2.094       .  S
Mn530       O545   2.101       .  S
Mn530       O535   1.964       .  S
C531        C576   1.437       .  S
C531        O547   1.271       .  A
O532       Mn544   1.966       .  S
O532        C534   1.219       .  S
C534        C584   1.435       .  S
O535      Mn1116   1.969       .  S
O536       Mn539   2.098       .  S
C541        C592   1.435       .  S
O542      Mn1122   2.094   1_455  S
O543      Mn1107   2.095   1_455  S
O543        C548   1.250       .  A
Mn544       O547   2.098       .  S
O546        C548   1.218       .  S
C548        C577   1.437       .  S
C549        C550   1.207       .  T
C550        C551   1.414       .  S
C551        C552   1.207       .  T
C553        C554   1.207       .  T
C554        C555   1.414       .  S
C555        C556   1.207       .  T
C557        C558   1.207       .  T
C558        C559   1.414       .  S
C559        C560   1.207       .  T
C561        C562   1.208       .  T
C562        C563   1.415       .  S
C563        C564   1.208       .  T
C565        C566   1.208       .  T
C566        C567   1.415       .  S
C567        C568   1.208       .  T
C569        C570   1.207       .  T
C570        C571   1.414       .  S
C571        C572   1.207       .  T
C573        C574   1.207       .  T
C574        C575   1.414       .  S
C575        C576   1.207       .  T
C577        C578   1.207       .  T
C578        C579   1.414       .  S
C579        C580   1.207       .  T
C581        C582   1.206       .  T
C582        C583   1.412       .  S
C583        C584   1.206       .  T
C585        C586   1.208       .  T
C586        C587   1.415       .  S
C587        C588   1.208       .  T
C589        C590   1.206       .  T
C590        C591   1.412       .  S
C591        C592   1.206       .  T
C593        C594   1.208       .  T
C594        C595   1.415       .  S
C595        C596   1.207       .  T
C597        C598   1.404       .  A
C597        C602   1.397       .  A
C597        C742   1.443       .  S
C598        C599   1.418       .  A
C598        H603   1.080       .  S
C599        C600   1.417       .  A
C599        C608   1.511       .  S
C600        C601   1.398       .  A
C600        H604   1.077       .  S
C601        C602   1.395       .  A
C601        C738   1.441       .  S
C602        H605   1.084       .  S
C606        C607   1.404   1_556  A
C606        C760   1.397       .  A
C606        C883   1.444       .  S
C607        C608   1.418       .  A
C607        H612   1.080       .  S
C608        C609   1.417       .  A
C609        C610   1.398   1_554  A
C609        H613   1.077       .  S
C610        C760   1.395       .  A
C610        C879   1.441       .  S
C611        C755   1.397       .  A
C611        C759   1.395       .  A
C611        H614   1.084       .  S
C615        C616   1.403       .  A
C615        C620   1.397       .  A
C615        C722   1.443       .  S
C616        C617   1.417       .  A
C616        H621   1.080       .  S
C617        C618   1.417       .  A
C617        C626   1.512       .  S
C618        C619   1.400       .  A
C618        H622   1.078       .  S
C619        C620   1.396       .  A
C619        C729   1.443       .  S
C620        H623   1.084       .  S
C624        C625   1.404   1_556  A
C624        C778   1.396       .  A
C624        C863   1.444       .  S
C625        C626   1.419       .  A
C625        H630   1.080       .  S
C626        C627   1.417       .  A
C627        C628   1.399   1_554  A
C627        H631   1.078       .  S
C628        C778   1.395       .  A
C628        C870   1.442       .  S
C629        C773   1.396       .  A
C629        C777   1.395       .  A
C629        H632   1.084       .  S
C633        C634   1.404       .  A
C633        C638   1.396       .  A
C633        C710   1.444       .  S
C634        C635   1.418       .  A
C634        H639   1.080       .  S
C635        C636   1.417       .  A
C635        C644   1.512       .  S
C636        C637   1.400       .  A
C636        H640   1.078       .  S
C637        C638   1.395       .  A
C637        C706   1.442       .  S
C638        H641   1.084       .  S
C642        C643   1.403   1_556  A
C642        C796   1.397       .  A
C642        C851   1.443       .  S
C643        C644   1.417       .  A
C643        H648   1.080       .  S
C644        C645   1.417       .  A
C645        C646   1.400   1_554  A
C645        H649   1.078       .  S
C646        C796   1.396       .  A
C646        C847   1.443       .  S
C647        C791   1.397       .  A
C647        C795   1.396       .  A
C647        H650   1.084       .  S
O651       Mn677   2.095       .  S
C652        C745   1.438       .  S
C652        O685   1.271       .  A
C652        O682   1.270       .  A
O653       Mn660   2.165       .  S
O653       Mn671   2.137       .  S
O653       Mn675   2.157       .  S
O654       Mn688   2.095       .  S
O654        C664   1.270       .  A
O655       Mn671   2.098       .  S
O655        C678   1.271       .  A
O656       Mn675   2.092       .  S
O656        C683   1.250       .  A
O657       Mn986   1.967       .  S
O657       Mn677   1.972       .  S
O657        C673   1.220       .  S
C658        C701   1.437       .  S
C658        O661   1.250       .  A
C658        O684   1.218       .  S
O659       Mn977   2.136       .  S
O659       Mn660   2.157       .  S
O659       Mn693   2.137       .  S
O659       Mn675   2.165       .  S
Mn660       O987   2.095       .  S
Mn660       O665   2.092       .  S
O661       Mn973   2.095   1_545  S
O662       Mn669   2.098       .  S
O662        C664   1.271       .  A
C663        C709   1.437       .  S
C663        O689   1.251       .  A
C663        O676   1.220       .  S
C664        C737   1.438       .  S
O665        C690   1.250       .  A
O666       Mn669   2.136       .  S
O666       Mn688   2.136       .  S
O667       Mn671   1.965       .  S
O667       Mn693   1.967       .  S
O667        C690   1.219       .  S
C668        C717   1.438       .  S
C668        O992   1.271       .  A
C668        O670   1.269       .  A
Mn669       O682   2.095       .  S
O670       Mn693   2.091       .  S
Mn671       O687   2.091       .  S
Mn671       O681   1.967       .  S
O672       Mn677   2.100       .  S
C673        C718   1.437       .  S
C673        O691   1.251       .  A
C674        C713   1.438       .  S
C674        O687   1.269       .  A
Mn675       O959   2.095       .  S
O676       Mn679   1.972       .  S
Mn677       O695   1.964       .  S
C678        C705   1.437       .  S
Mn679       O686   2.094       .  S
Mn679       O694   2.101       .  S
Mn679       O957   2.136   1_545  S
Mn679       O684   1.964       .  S
C680        C725   1.437       .  S
C680        O984   1.271       .  A
C680        O696   1.271       .  A
O681       Mn693   1.966       .  S
O681        C683   1.219       .  S
C683        C733   1.435       .  S
O685       Mn688   2.098       .  S
O686        C978   1.271   1_545  A
Mn688       O955   1.967   1_545  S
Mn688       O993   1.969   1_545  S
O689       Mn958   2.095   1_545  S
C690        C741   1.435       .  S
O692        C697   1.250       .  A
Mn693       O696   2.098       .  S
O694        C966   1.271   1_545  A
O695       Mn986   1.969       .  S
O695        C697   1.218       .  S
C697        C726   1.437       .  S
C698        C795   1.443       .  S
C698        C699   1.207       .  T
C699        C700   1.414       .  S
C700        C701   1.207       .  T
C702        C791   1.443       .  S
C702        C703   1.207       .  T
C703        C704   1.414       .  S
C704        C705   1.207       .  T
C706        C707   1.207       .  T
C707        C708   1.414       .  S
C708        C709   1.207       .  T
C710        C711   1.208       .  T
C711        C712   1.415       .  S
C712        C713   1.208       .  T
C714        C773   1.444       .  S
C714        C715   1.208       .  T
C715        C716   1.415       .  S
C716        C717   1.208       .  T
C718        C719   1.207       .  T
C719        C720   1.414       .  S
C720        C721   1.207       .  T
C721        C777   1.442       .  S
C722        C723   1.207       .  T
C723        C724   1.414       .  S
C724        C725   1.207       .  T
C726        C727   1.207       .  T
C727        C728   1.414       .  S
C728        C729   1.207       .  T
C730        C759   1.441       .  S
C730        C731   1.206       .  T
C731        C732   1.412       .  S
C732        C733   1.206       .  T
C734        C755   1.443       .  S
C734        C735   1.208       .  T
C735        C736   1.415       .  S
C736        C737   1.208       .  T
C738        C739   1.206       .  T
C739        C740   1.412       .  S
C740        C741   1.206       .  T
C742        C743   1.208       .  T
C743        C744   1.415       .  S
C744        C745   1.208       .  T
C746        C747   1.404       .  A
C746        C751   1.397       .  A
C746        C891   1.443       .  S
C747        C748   1.418       .  A
C747        H752   1.080       .  S
C748        C749   1.417       .  A
C748        C757   1.511       .  S
C749        C750   1.398       .  A
C749        H753   1.077       .  S
C750        C751   1.395       .  A
C750        C887   1.441       .  S
C751        H754   1.084       .  S
C755        C756   1.404       .  A
C756        C757   1.418       .  A
C756        H761   1.080       .  S
C757        C758   1.417       .  A
C758        C759   1.398       .  A
C758        H762   1.077       .  S
C760        H763   1.084       .  S
C764        C765   1.403       .  A
C764        C769   1.397       .  A
C764        C871   1.443       .  S
C765        C766   1.417       .  A
C765        H770   1.080       .  S
C766        C767   1.417       .  A
C766        C775   1.512       .  S
C767        C768   1.400       .  A
C767        H771   1.078       .  S
C768        C769   1.396       .  A
C768        C878   1.443       .  S
C769        H772   1.084       .  S
C773        C774   1.404       .  A
C774        C775   1.418       .  A
C774        H779   1.080       .  S
C775        C776   1.417       .  A
C776        C777   1.399       .  A
C776        H780   1.078       .  S
C778        H781   1.084       .  S
C782        C783   1.404       .  A
C782        C787   1.396       .  A
C782        C859   1.443       .  S
C783        C784   1.418       .  A
C783        H788   1.080       .  S
C784        C785   1.417       .  A
C784        C793   1.512       .  S
C785        C786   1.399       .  A
C785        H789   1.078       .  S
C786        C787   1.395       .  A
C786        C855   1.442       .  S
C787        H790   1.084       .  S
C791        C792   1.403       .  A
C792        C793   1.417       .  A
C792        H797   1.080       .  S
C793        C794   1.417       .  A
C794        C795   1.400       .  A
C794        H798   1.078       .  S
C796        H799   1.084       .  S
O800       Mn826   2.095       .  S
C801        C894   1.438       .  S
C801        O834   1.271       .  A
C801        O831   1.270       .  A
O802       Mn809   2.165       .  S
O802       Mn820   2.137       .  S
O802       Mn824   2.157       .  S
O803       Mn837   2.095       .  S
O803        C813   1.270       .  A
O804       Mn820   2.098       .  S
O804        C827   1.271       .  A
O805       Mn824   2.092       .  S
O805        C832   1.250       .  A
O806      Mn1135   1.967       .  S
O806       Mn826   1.972       .  S
O806        C822   1.220       .  S
C807        C850   1.437       .  S
C807        O810   1.250       .  A
C807        O833   1.218       .  S
O808      Mn1126   2.136       .  S
O808       Mn809   2.157       .  S
O808       Mn842   2.137       .  S
O808       Mn824   2.165       .  S
Mn809      O1136   2.095       .  S
Mn809       O814   2.092       .  S
O810      Mn1122   2.095   1_545  S
O811       Mn818   2.098       .  S
O811        C813   1.271       .  A
C812        C858   1.437       .  S
C812        O838   1.251       .  A
C812        O825   1.220       .  S
C813        C886   1.438       .  S
O814        C839   1.250       .  A
O815       Mn818   2.136       .  S
O815       Mn837   2.136       .  S
O816       Mn820   1.965       .  S
O816       Mn842   1.967       .  S
O816        C839   1.219       .  S
C817        C866   1.438       .  S
C817       O1141   1.271       .  A
C817        O819   1.269       .  A
Mn818       O831   2.095       .  S
O819       Mn842   2.091       .  S
Mn820       O836   2.091       .  S
Mn820       O830   1.967       .  S
O821       Mn826   2.100       .  S
C822        C867   1.437       .  S
C822        O840   1.251       .  A
C823        C862   1.438       .  S
C823        O836   1.269       .  A
Mn824      O1108   2.095       .  S
O825       Mn828   1.972       .  S
Mn826       O844   1.964       .  S
C827        C854   1.437       .  S
Mn828       O835   2.094       .  S
Mn828       O843   2.101       .  S
Mn828      O1106   2.136   1_545  S
Mn828       O833   1.964       .  S
C829        C874   1.437       .  S
C829       O1133   1.271       .  A
C829        O845   1.271       .  A
O830       Mn842   1.966       .  S
O830        C832   1.219       .  S
C832        C882   1.435       .  S
O834       Mn837   2.098       .  S
O835       C1127   1.271   1_545  A
Mn837      O1104   1.967   1_545  S
Mn837      O1142   1.969   1_545  S
O838      Mn1107   2.095   1_545  S
C839        C890   1.435       .  S
O841        C846   1.250       .  A
Mn842       O845   2.098       .  S
O843       C1115   1.271   1_545  A
O844      Mn1135   1.969       .  S
O844        C846   1.218       .  S
C846        C875   1.437       .  S
C847        C848   1.207       .  T
C848        C849   1.414       .  S
C849        C850   1.207       .  T
C851        C852   1.207       .  T
C852        C853   1.414       .  S
C853        C854   1.207       .  T
C855        C856   1.207       .  T
C856        C857   1.414       .  S
C857        C858   1.207       .  T
C859        C860   1.208       .  T
C860        C861   1.415       .  S
C861        C862   1.208       .  T
C863        C864   1.208       .  T
C864        C865   1.415       .  S
C865        C866   1.208       .  T
C867        C868   1.207       .  T
C868        C869   1.414       .  S
C869        C870   1.207       .  T
C871        C872   1.207       .  T
C872        C873   1.414       .  S
C873        C874   1.207       .  T
C875        C876   1.207       .  T
C876        C877   1.414       .  S
C877        C878   1.207       .  T
C879        C880   1.206       .  T
C880        C881   1.412       .  S
C881        C882   1.206       .  T
C883        C884   1.208       .  T
C884        C885   1.415       .  S
C885        C886   1.208       .  T
C887        C888   1.206       .  T
C888        C889   1.412       .  S
C889        C890   1.206       .  T
C891        C892   1.208       .  T
C892        C893   1.415       .  S
C893        C894   1.207       .  T
C895        C896   1.404       .  A
C895        C900   1.397       .  A
C895       C1040   1.443       .  S
C896        C897   1.418       .  A
C896        H901   1.080       .  S
C897        C898   1.417       .  A
C897        C906   1.511       .  S
C898        C899   1.398       .  A
C898        H902   1.077       .  S
C899        C900   1.395       .  A
C899       C1036   1.441       .  S
C900        H903   1.084       .  S
C904        C905   1.404   1_556  A
C904       C1058   1.397       .  A
C904       C1181   1.444       .  S
C905        C906   1.418       .  A
C905        H910   1.080       .  S
C906        C907   1.417       .  A
C907        C908   1.398   1_554  A
C907        H911   1.077       .  S
C908       C1058   1.395       .  A
C908       C1177   1.441       .  S
C909       C1053   1.397       .  A
C909       C1057   1.395       .  A
C909        H912   1.084       .  S
C913        C914   1.403       .  A
C913        C918   1.397       .  A
C913       C1020   1.443       .  S
C914        C915   1.417       .  A
C914        H919   1.080       .  S
C915        C916   1.417       .  A
C915        C924   1.512       .  S
C916        C917   1.400       .  A
C916        H920   1.078       .  S
C917        C918   1.396       .  A
C917       C1027   1.443       .  S
C918        H921   1.084       .  S
C922        C923   1.404   1_556  A
C922       C1076   1.396       .  A
C922       C1161   1.444       .  S
C923        C924   1.419       .  A
C923        H928   1.080       .  S
C924        C925   1.417       .  A
C925        C926   1.399   1_554  A
C925        H929   1.078       .  S
C926       C1076   1.395       .  A
C926       C1168   1.442       .  S
C927       C1071   1.396       .  A
C927       C1075   1.395       .  A
C927        H930   1.084       .  S
C931        C932   1.404       .  A
C931        C936   1.396       .  A
C931       C1008   1.444       .  S
C932        C933   1.418       .  A
C932        H937   1.080       .  S
C933        C934   1.417       .  A
C933        C942   1.512       .  S
C934        C935   1.400       .  A
C934        H938   1.078       .  S
C935        C936   1.395       .  A
C935       C1004   1.443       .  S
C936        H939   1.084       .  S
C940        C941   1.403   1_556  A
C940       C1094   1.397       .  A
C940       C1149   1.443       .  S
C941        C942   1.417       .  A
C941        H946   1.080       .  S
C942        C943   1.417       .  A
C943        C944   1.400   1_554  A
C943        H947   1.078       .  S
C944       C1094   1.396       .  A
C944       C1145   1.443       .  S
C945       C1089   1.397       .  A
C945       C1093   1.396       .  A
C945        H948   1.084       .  S
O949       Mn975   2.095       .  S
C950       C1043   1.438       .  S
C950        O983   1.271       .  A
C950        O980   1.270       .  A
O951       Mn958   2.165       .  S
O951       Mn969   2.137       .  S
O951       Mn973   2.157       .  S
O952       Mn986   2.095       .  S
O952        C962   1.270       .  A
O953       Mn969   2.098       .  S
O953        C976   1.271       .  A
O954       Mn973   2.092       .  S
O954        C981   1.250       .  A
O955       Mn975   1.972       .  S
O955        C971   1.220       .  S
C956        C999   1.437       .  S
C956        O959   1.250       .  A
C956        O982   1.218       .  S
O957       Mn958   2.157       .  S
O957       Mn991   2.137       .  S
O957       Mn973   2.165       .  S
Mn958       O963   2.092       .  S
O960       Mn967   2.098       .  S
O960        C962   1.271       .  A
C961       C1007   1.437       .  S
C961        O987   1.251       .  A
C961        O974   1.220       .  S
C962       C1035   1.438       .  S
O963        C988   1.250       .  A
O964       Mn967   2.136       .  S
O964       Mn986   2.136       .  S
O965       Mn969   1.965       .  S
O965       Mn991   1.967       .  S
O965        C988   1.219       .  S
C966       C1015   1.438       .  S
C966        O968   1.269       .  A
Mn967       O980   2.095       .  S
O968       Mn991   2.091       .  S
Mn969       O985   2.091       .  S
Mn969       O979   1.967       .  S
O970       Mn975   2.100       .  S
C971       C1016   1.437       .  S
C971        O989   1.251       .  A
C972       C1011   1.438       .  S
C972        O985   1.269       .  A
O974       Mn977   1.972       .  S
Mn975       O993   1.964       .  S
C976       C1003   1.437       .  S
Mn977       O984   2.094       .  S
Mn977       O992   2.101       .  S
Mn977       O982   1.964       .  S
C978       C1023   1.437       .  S
C978        O994   1.271       .  A
O979       Mn991   1.966       .  S
O979        C981   1.219       .  S
C981       C1031   1.435       .  S
O983       Mn986   2.098       .  S
C988       C1039   1.435       .  S
O990        C995   1.250       .  A
Mn991       O994   2.098       .  S
O993        C995   1.218       .  S
C995       C1024   1.437       .  S
C996       C1093   1.443       .  S
C996        C997   1.207       .  T
C997        C998   1.414       .  S
C998        C999   1.207       .  T
C1000      C1089   1.443       .  S
C1000      C1001   1.207       .  T
C1001      C1002   1.414       .  S
C1002      C1003   1.207       .  T
C1004      C1005   1.207       .  T
C1005      C1006   1.414       .  S
C1006      C1007   1.207       .  T
C1008      C1009   1.208       .  T
C1009      C1010   1.415       .  S
C1010      C1011   1.208       .  T
C1012      C1071   1.444       .  S
C1012      C1013   1.208       .  T
C1013      C1014   1.415       .  S
C1014      C1015   1.208       .  T
C1016      C1017   1.207       .  T
C1017      C1018   1.414       .  S
C1018      C1019   1.207       .  T
C1019      C1075   1.442       .  S
C1020      C1021   1.207       .  T
C1021      C1022   1.414       .  S
C1022      C1023   1.207       .  T
C1024      C1025   1.207       .  T
C1025      C1026   1.414       .  S
C1026      C1027   1.207       .  T
C1028      C1057   1.441       .  S
C1028      C1029   1.206       .  T
C1029      C1030   1.412       .  S
C1030      C1031   1.206       .  T
C1032      C1053   1.443       .  S
C1032      C1033   1.208       .  T
C1033      C1034   1.415       .  S
C1034      C1035   1.208       .  T
C1036      C1037   1.206       .  T
C1037      C1038   1.412       .  S
C1038      C1039   1.206       .  T
C1040      C1041   1.208       .  T
C1041      C1042   1.415       .  S
C1042      C1043   1.208       .  T
C1044      C1045   1.404       .  A
C1044      C1049   1.397       .  A
C1044      C1189   1.443       .  S
C1045      C1046   1.418       .  A
C1045      H1050   1.080       .  S
C1046      C1047   1.417       .  A
C1046      C1055   1.511       .  S
C1047      C1048   1.398       .  A
C1047      H1051   1.077       .  S
C1048      C1049   1.395       .  A
C1048      C1185   1.441       .  S
C1049      H1052   1.084       .  S
C1053      C1054   1.404       .  A
C1054      C1055   1.418       .  A
C1054      H1059   1.080       .  S
C1055      C1056   1.417       .  A
C1056      C1057   1.398       .  A
C1056      H1060   1.077       .  S
C1058      H1061   1.084       .  S
C1062      C1063   1.403       .  A
C1062      C1067   1.397       .  A
C1062      C1169   1.443       .  S
C1063      C1064   1.417       .  A
C1063      H1068   1.080       .  S
C1064      C1065   1.417       .  A
C1064      C1073   1.512       .  S
C1065      C1066   1.400       .  A
C1065      H1069   1.078       .  S
C1066      C1067   1.396       .  A
C1066      C1176   1.443       .  S
C1067      H1070   1.084       .  S
C1071      C1072   1.404       .  A
C1072      C1073   1.418       .  A
C1072      H1077   1.080       .  S
C1073      C1074   1.417       .  A
C1074      C1075   1.399       .  A
C1074      H1078   1.078       .  S
C1076      H1079   1.084       .  S
C1080      C1081   1.404       .  A
C1080      C1085   1.396       .  A
C1080      C1157   1.443       .  S
C1081      C1082   1.418       .  A
C1081      H1086   1.080       .  S
C1082      C1083   1.417       .  A
C1082      C1091   1.512       .  S
C1083      C1084   1.399       .  A
C1083      H1087   1.078       .  S
C1084      C1085   1.395       .  A
C1084      C1153   1.442       .  S
C1085      H1088   1.084       .  S
C1089      C1090   1.403       .  A
C1090      C1091   1.417       .  A
C1090      H1095   1.080       .  S
C1091      C1092   1.417       .  A
C1092      C1093   1.400       .  A
C1092      H1096   1.078       .  S
C1094      H1097   1.084       .  S
O1098     Mn1124   2.095       .  S
C1099      C1192   1.438       .  S
C1099      O1132   1.271       .  A
C1099      O1129   1.270       .  A
O1100     Mn1107   2.165       .  S
O1100     Mn1118   2.137       .  S
O1100     Mn1122   2.157       .  S
O1101     Mn1135   2.095       .  S
O1101      C1111   1.270       .  A
O1102     Mn1118   2.098       .  S
O1102      C1125   1.271       .  A
O1103     Mn1122   2.092       .  S
O1103      C1130   1.250       .  A
O1104     Mn1124   1.972       .  S
O1104      C1120   1.220       .  S
C1105      C1148   1.437       .  S
C1105      O1108   1.250       .  A
C1105      O1131   1.218       .  S
O1106     Mn1107   2.157       .  S
O1106     Mn1140   2.137       .  S
O1106     Mn1122   2.165       .  S
Mn1107     O1112   2.092       .  S
O1109     Mn1116   2.098       .  S
O1109      C1111   1.271       .  A
C1110      C1156   1.437       .  S
C1110      O1136   1.251       .  A
C1110      O1123   1.220       .  S
C1111      C1184   1.438       .  S
O1112      C1137   1.250       .  A
O1113     Mn1116   2.136       .  S
O1113     Mn1135   2.136       .  S
O1114     Mn1118   1.965       .  S
O1114     Mn1140   1.967       .  S
O1114      C1137   1.219       .  S
C1115      C1164   1.438       .  S
C1115      O1117   1.269       .  A
Mn1116     O1129   2.095       .  S
O1117     Mn1140   2.091       .  S
Mn1118     O1134   2.091       .  S
Mn1118     O1128   1.967       .  S
O1119     Mn1124   2.100       .  S
C1120      C1165   1.437       .  S
C1120      O1138   1.251       .  A
C1121      C1160   1.438       .  S
C1121      O1134   1.269       .  A
O1123     Mn1126   1.972       .  S
Mn1124     O1142   1.964       .  S
C1125      C1152   1.437       .  S
Mn1126     O1133   2.094       .  S
Mn1126     O1141   2.101       .  S
Mn1126     O1131   1.964       .  S
C1127      C1172   1.437       .  S
C1127      O1143   1.271       .  A
O1128     Mn1140   1.966       .  S
O1128      C1130   1.219       .  S
C1130      C1180   1.435       .  S
O1132     Mn1135   2.098       .  S
C1137      C1188   1.435       .  S
O1139      C1144   1.250       .  A
Mn1140     O1143   2.098       .  S
O1142      C1144   1.218       .  S
C1144      C1173   1.437       .  S
C1145      C1146   1.207       .  T
C1146      C1147   1.414       .  S
C1147      C1148   1.207       .  T
C1149      C1150   1.207       .  T
C1150      C1151   1.414       .  S
C1151      C1152   1.207       .  T
C1153      C1154   1.207       .  T
C1154      C1155   1.414       .  S
C1155      C1156   1.207       .  T
C1157      C1158   1.208       .  T
C1158      C1159   1.415       .  S
C1159      C1160   1.208       .  T
C1161      C1162   1.208       .  T
C1162      C1163   1.415       .  S
C1163      C1164   1.208       .  T
C1165      C1166   1.207       .  T
C1166      C1167   1.414       .  S
C1167      C1168   1.207       .  T
C1169      C1170   1.207       .  T
C1170      C1171   1.414       .  S
C1171      C1172   1.207       .  T
C1173      C1174   1.207       .  T
C1174      C1175   1.414       .  S
C1175      C1176   1.207       .  T
C1177      C1178   1.206       .  T
C1178      C1179   1.412       .  S
C1179      C1180   1.206       .  T
C1181      C1182   1.208       .  T
C1182      C1183   1.415       .  S
C1183      C1184   1.208       .  T
C1185      C1186   1.206       .  T
C1186      C1187   1.412       .  S
C1187      C1188   1.206       .  T
C1189      C1190   1.208       .  T
C1190      C1191   1.415       .  S
C1191      C1192   1.207       .  T
