geometry optimzed in LAMMPS
_audit_creation_date              2020-11-30 
_audit_creation_method            'lammps2cif' 
_symmetry_space_group_name_H-M    'P1' 
_symmetry_Int_Tables_number       1 
_symmetry_cell_setting            triclinic 
loop_ 
_symmetry_equiv_pos_as_xyz 
  x,y,z 
_cell_length_a                    47.48447089 
_cell_length_b                    47.22056877971199 
_cell_length_c                    29.586780650337595 
_cell_angle_alpha                 90.08330285810077 
_cell_angle_beta                  89.9890025060223 
_cell_angle_gamma                 121.84081775349706 
loop_ 
_atom_site_label 
_atom_site_type_symbol 
_atom_site_fract_x 
_atom_site_fract_y 
_atom_site_fract_z 
_atom_site_charge 
Fe1        Fe  0.34118585  0.13401115  0.50031723     1.65800
Fe2        Fe  0.37546711  0.21874949  0.50084108     1.73200
Fe3        Fe  0.29103622  0.16591360  0.49899533     1.54400
O4          O  0.27227346  0.12711324  0.45316237    -0.81100
O5          O  0.35714594  0.23423031  0.55231417    -0.79400
O6          O  0.30726907  0.10958987  0.44855769    -0.83600
O7          O  0.30441763  0.10866943  0.54880401    -0.78500
O8          O  0.30207483  0.19795062  0.44528659    -0.80300
O9          O  0.40006692  0.20819057  0.54973876    -0.83000
C10         C  0.28124354  0.11130413  0.56574751     0.97800
C11         C  0.28093659  0.10815964  0.43622511     1.05200
O12         O  0.33595432  0.17289777  0.49998398    -1.12000
O13         O  0.39895811  0.20909870  0.44926717    -0.74400
O14         O  0.37879187  0.15449510  0.45230330    -0.77900
O15         O  0.27514667  0.13305201  0.55234831    -0.78600
C16         C  0.39878086  0.18333829  0.43621360     0.96700
O17         O  0.37575663  0.15299189  0.55191743    -0.76600
O18         O  0.35612440  0.23569309  0.45259407    -0.81800
C19         C  0.32829910  0.22704703  0.56360853     0.99300
C20         C  0.32812806  0.22503857  0.43401061     1.05200
O21         O  0.30237722  0.20346941  0.54508708    -0.77400
C22         C  0.39734738  0.18195190  0.56596129     1.03500
N23         N  0.09631269  0.09901297  0.07028578    -0.36100
N24         N  0.08032914  0.13099653  0.99925791    -0.56600
N25         N  0.10294531  0.10187947  0.93240001    -0.36100
N26         N  0.12286818  0.07349072  0.00325219    -0.56600
C27         C  0.08904139  0.11824040  0.09563150     0.27500
C28         C  0.11153454  0.08818482  0.09773640     0.27500
C29         C  0.09870430  0.12297743  0.90644594     0.27500
C30         C  0.12288181  0.09444109  0.90923616     0.27500
C31         C  0.06717462  0.13820436  0.03481120     0.36100
C32         C  0.06930570  0.13829008  0.96145755     0.36100
C33         C  0.12382524  0.05727706  0.04036128     0.36100
C34         C  0.12744674  0.05880936  0.96697240     0.36100
C35         C  0.09956066  0.11942132  0.13970461    -0.21300
C36         C  0.11375303  0.10052527  0.14103010    -0.21300
C37         C  0.11627565  0.12927124  0.86655516    -0.21300
C38         C  0.13197154  0.11173626  0.86860202    -0.21300
C39         C  0.04892413  0.15141353  0.01946475    -0.22400
C40         C  0.04986989  0.15102734  0.97312895    -0.22400
C41         C  0.12942421  0.03242023  0.02768543    -0.22400
C42         C  0.13126672  0.03304888  0.98123697    -0.22400
C43         C  0.07159063  0.13335268  0.08098686    -0.17800
C44         C  0.12176992  0.06592369  0.08564008    -0.17800
C45         C  0.13010353  0.06980272  0.92158542    -0.17700
C46         C  0.07772452  0.13504083  0.91659244    -0.17700
H47         H  0.09711958  0.13243991  0.16811802     0.15200
H48         H  0.12417077  0.09608202  0.17073634     0.15200
H49         H  0.11752422  0.14479971  0.83879705     0.15200
H50         H  0.14746863  0.11095508  0.84241879     0.15200
H51         H  0.03619192  0.16043150  0.03952008     0.13400
H52         H  0.03799041  0.15965423  0.95069244     0.13400
H53         H  0.13203952  0.01569934  0.04967087     0.13400
H54         H  0.13528333  0.01658109  0.96055705     0.13400
H55         H  0.08812233  0.09077466  0.03762456     0.26700
H56         H  0.08924320  0.08969263  0.96108230     0.26700
N57         N  0.37927679  0.50529496  0.93626541    -0.36100
N58         N  0.39452882  0.05379700  0.00535881    -0.56600
N59         N  0.36348729  0.50224081  0.07431047    -0.36100
N60         N  0.34969376  0.45398404  0.00352209    -0.56600
C61         C  0.40339714  0.03356056  0.91732001     0.27500
C62         C  0.37901668  0.47944548  0.91607237     0.27500
C63         C  0.38243700  0.02975890  0.09957992     0.27500
C64         C  0.35869273  0.47577509  0.09853144     0.27500
C65         C  0.39918706  0.07216218  0.96796532     0.36100
C66         C  0.39123940  0.07017005  0.04030561     0.36100
C67         C  0.33701602  0.43613203  0.96522555     0.36100
C68         C  0.33113689  0.43427972  0.03792144     0.36100
C69         C  0.41938237  0.02565434  0.88501289    -0.21300
C70         C  0.40428710  0.49156058  0.88434833    -0.21300
C71         C  0.38912745  0.02065102  0.14088552    -0.21300
C72         C  0.37363155  0.48661710  0.14057091    -0.21300
C73         C  0.39727720  0.09964664  0.97885824    -0.22400
C74         C  0.39309058  0.09883060  0.02506197    -0.22400
C75         C  0.30886374  0.40554415  0.97506104    -0.22400
C76         C  0.30591886  0.40385359  0.02143421    -0.22400
C77         C  0.40919825  0.06577979  0.92613287    -0.17800
C78         C  0.35459507  0.44546047  0.92390915    -0.17800
C79         C  0.34081730  0.44222250  0.08337501    -0.17700
C80         C  0.39340370  0.06268756  0.08582026    -0.17700
H81         H  0.43997176  0.04278122  0.86377565     0.15200
H82         H  0.41051710  0.47721583  0.86258198     0.15200
H83         H  0.40400949  0.03674039  0.16835867     0.15200
H84         H  0.37371431  0.47166583  0.16816947     0.15200
H85         H  0.40040693  0.11914235  0.95634199     0.13400
H86         H  0.39270798  0.11769675  0.04539203     0.13400
H87         H  0.29368182  0.38554455  0.95165194     0.13400
H88         H  0.28777581  0.38238656  0.04046601     0.13400
H89         H  0.36096285  0.50342774  0.95778659     0.26700
H90         H  0.35279718  0.50138451  0.04318430     0.26700
N91         N  0.00609674  0.37274748  0.06616178    -0.36100
N92         N  0.05457836  0.38685166  0.99595063    -0.56600
N93         N  0.00263794  0.36916366  0.92903058    -0.36100
N94         N  0.45361018  0.35144688  0.99837317    -0.56600
C95         C  0.03254893  0.38005969  0.09247187     0.27500
C96         C  0.47875121  0.35884476  0.09291146     0.27500
C97         C  0.02740667  0.37240130  0.90286840     0.27500
C98         C  0.47462743  0.35345107  0.90396506     0.27500
C99         C  0.07563936  0.39857698  0.03158923     0.36100
C100        C  0.07360385  0.39818343  0.95826057     0.36100
C101        C  0.43800297  0.35360355  0.03514382     0.36100
C102        C  0.43653932  0.35189178  0.96211558     0.36100
C103        C  0.02161077  0.37126614  0.13673754    -0.21300
C104        C  0.48784797  0.35650989  0.13653319    -0.21300
C105        C  0.01502537  0.35825628  0.86082067    -0.21300
C106        C  0.48155938  0.34610388  0.86158184    -0.21300
C107        C  0.10810258  0.41489928  0.01603882    -0.22400
C108        C  0.10682560  0.41585971  0.97000663    -0.22400
C109        C  0.41089809  0.35536948  0.02205169    -0.22400
C110        C  0.40983460  0.35385687  0.97577851    -0.22400
C111        C  0.06630479  0.39635138  0.07786713    -0.17800
C112        C  0.44674815  0.35202267  0.08036640    -0.17800
C113        C  0.44410604  0.34934118  0.91679911    -0.17700
C114        C  0.06138143  0.39263996  0.91341535    -0.17700
H115        H  0.03580296  0.37547925  0.16708577     0.15200
H116        H  0.47218630  0.34679971  0.16609546     0.15200
H117        H  0.02899705  0.35807376  0.83202802     0.15200
H118        H  0.46456646  0.33451017  0.83354794     0.15200
H119        H  0.13074358  0.42587300  0.03553818     0.13400
H120        H  0.12826322  0.42824130  0.94824026     0.13400
H121        H  0.39354919  0.35731086  0.04355638     0.13400
H122        H  0.39157546  0.35404042  0.95431655     0.13400
H123        H  0.00734705  0.38086828  0.03341222     0.26700
H124        H  0.00587116  0.38222138  0.95873401     0.26700
C125        C  0.01809501  0.19969794  0.29315057     0.02800
C126        C  0.48484581  0.19122186  0.29116815     0.02800
C127        C  0.46588230  0.17495959  0.25269715    -0.17700
C128        C  0.47753715  0.16286606  0.21852131     0.02800
C129        C  0.01121248  0.17137255  0.22079417     0.02800
C130        C  0.03107381  0.19056501  0.25730131    -0.17700
H131        H  0.05681440  0.19762115  0.25854838     0.04800
H132        H  0.44087762  0.16996115  0.25089558     0.04800
C133        C  0.32467856  0.30588320  0.29031669     0.02800
C134        C  0.30955732  0.32483218  0.29153688     0.02800
C135        C  0.31393760  0.34569002  0.25504443    -0.17700
C136        C  0.33305708  0.34836855  0.21710156     0.02800
C137        C  0.35010244  0.33105055  0.21767115     0.02800
C138        C  0.34507842  0.30961073  0.25366267    -0.17700
H139        H  0.35807846  0.29639192  0.25381368     0.04800
H140        H  0.30224734  0.36015396  0.25634100     0.04800
C141        C  0.48397624  0.18574832  0.70761060     0.02800
C142        C  0.01834234  0.19821958  0.70506050     0.02800
C143        C  0.03363185  0.19089115  0.73991824    -0.17700
C144        C  0.01547207  0.17094270  0.77692125     0.02800
C145        C  0.48099122  0.15856453  0.77961068     0.02800
C146        C  0.46605127  0.16698616  0.74546365    -0.17700
H147        H  0.43977177  0.15769712  0.74738672     0.04800
H148        H  0.05990954  0.20020011  0.73765673     0.04800
C149        C  0.30272093  0.32077849  0.71192622     0.02800
C150        C  0.32197856  0.30612836  0.70879929     0.02800
C151        C  0.34365877  0.31074666  0.74409191    -0.17700
C152        C  0.34850186  0.33164369  0.78075024     0.02800
C153        C  0.33018572  0.34754304  0.78340949     0.02800
C154        C  0.30633443  0.34041709  0.74974807    -0.17700
H155        H  0.29150695  0.35165796  0.75168670     0.04800
H156        H  0.35818393  0.29915892  0.74191688     0.04800
C157        C  0.18534208  0.48425615  0.70542323     0.02800
C158        C  0.20030369  0.01935333  0.70822198     0.02800
C159        C  0.19258266  0.03297037  0.74506640    -0.17700
C160        C  0.17052339  0.01260001  0.77904457     0.02800
C161        C  0.15565225  0.47709565  0.77620470     0.02800
C162        C  0.16386293  0.46386440  0.73967550    -0.17700
H163        H  0.15217888  0.43705091  0.73675292     0.04800
H164        H  0.20319182  0.05967708  0.74667949     0.04800
C165        C  0.18693616  0.48326919  0.29084290     0.02800
C166        C  0.19412469  0.01608604  0.29643777     0.02800
C167        C  0.18342684  0.02944477  0.26296904    -0.17700
C168        C  0.16548439  0.01071878  0.22480778     0.02800
C169        C  0.16073746  0.47849250  0.21733218     0.02800
C170        C  0.17238317  0.46586894  0.25072744    -0.17700
H171        H  0.16875857  0.44135928  0.24685247     0.04800
H172        H  0.18868997  0.05461418  0.26698105     0.04800
Fe173      Fe  0.13507639  0.34119911  0.49996239     1.65800
Fe174      Fe  0.21921059  0.37615912  0.49967393     1.73200
Fe175      Fe  0.16729101  0.29096635  0.49835007     1.54400
O176        O  0.12956494  0.27207230  0.54611085    -0.81100
O177        O  0.23608207  0.35827075  0.44993776    -0.79400
O178        O  0.11139011  0.30678584  0.55146555    -0.83600
O179        O  0.10972993  0.30471070  0.45164694    -0.78500
O180        O  0.20081233  0.30209258  0.55057262    -0.80300
O181        O  0.20887600  0.39984877  0.44940898    -0.83000
C182        C  0.11163757  0.28135643  0.43371218     0.97800
C183        C  0.11045488  0.28043476  0.56335530     1.05200
O184        O  0.17385438  0.33609210  0.49937520    -1.12000
O185        O  0.20921505  0.40009341  0.54988484    -0.74400
O186        O  0.15478958  0.37870031  0.54806059    -0.77900
O187        O  0.13292996  0.27441890  0.44624032    -0.78600
C188        C  0.18345556  0.39914250  0.56364427     0.96700
O189        O  0.15397465  0.37604742  0.44851415    -0.76600
O190        O  0.23500815  0.35724978  0.54950428    -0.81800
C191        C  0.22888378  0.32996962  0.43544236     0.99300
C192        C  0.22606629  0.32874224  0.56534359     1.05200
O193        O  0.20396414  0.30310671  0.45016899    -0.77400
C194        C  0.18270819  0.39711534  0.43352327     1.03500
C195        C  0.18556752  0.42017247  0.39710910     0.00400
C196        C  0.16277769  0.43055761  0.39679678    -0.11500
C197        C  0.16386922  0.45202971  0.36342404     0.02600
C198        C  0.18838175  0.46402767  0.32950208     0.00300
C199        C  0.21120591  0.45369685  0.32939094    -0.11400
C200        C  0.21005205  0.43196843  0.36283809     0.02500
H201        H  0.14373025  0.42160956  0.42259844     0.15500
H202        H  0.22936121  0.46193999  0.30246109     0.15500
C203        C  0.23282844  0.42054786  0.35944064     0.37100
C204        C  0.13817558  0.45969228  0.36304921     0.37000
N205        N  0.25093336  0.41122535  0.35647686    -0.43200
N206        N  0.11734407  0.46548081  0.36254334    -0.43200
C207        C  0.18687015  0.42330757  0.59862672     0.00400
C208        C  0.16916543  0.43932027  0.59323648    -0.11500
C209        C  0.17020786  0.46112220  0.62633303     0.02600
C210        C  0.18926058  0.46728432  0.66579543     0.00300
C211        C  0.20746293  0.45179752  0.67088476    -0.11400
C212        C  0.20667105  0.43017893  0.63760959     0.02500
H213        H  0.15397649  0.43431588  0.56336718     0.15500
H214        H  0.22123036  0.45555115  0.70186016     0.15500
C215        C  0.22435511  0.41348174  0.64591249     0.37100
C216        C  0.14979283  0.47512797  0.62046045     0.37000
N217        N  0.23839636  0.39998844  0.65271867    -0.43200
N218        N  0.13455390  0.98711973  0.61523000    -0.43200
C219        C  0.28288112  0.32086833  0.67336937     0.00400
C220        C  0.29810476  0.34783980  0.64350825    -0.11500
C221        C  0.28016359  0.35118181  0.60866207     0.02600
C222        C  0.24613397  0.32654710  0.60237710     0.00300
C223        C  0.23103953  0.29929875  0.63233387    -0.11400
C224        C  0.24893351  0.29668638  0.66815415     0.02500
H225        H  0.32409805  0.36682229  0.64814302     0.15500
H226        H  0.20493354  0.28047443  0.62862522     0.15500
C227        C  0.23170961  0.26976041  0.70004748     0.37100
C228        C  0.29760719  0.38029859  0.58020467     0.37000
N229        N  0.21776719  0.24823966  0.72569943    -0.43200
N230        N  0.31158214  0.40383424  0.55777897    -0.43200
C231        C  0.03924767  0.21868920  0.66647617     0.00400
C232        C  0.05098090  0.20461323  0.63581950    -0.11500
C233        C  0.07386480  0.22395494  0.60200475     0.02600
C234        C  0.08581766  0.25850298  0.59850508     0.00300
C235        C  0.07341962  0.27229803  0.62899294    -0.11400
C236        C  0.05058523  0.25282727  0.66284190     0.02500
H237        H  0.04249925  0.17839096  0.63874910     0.15500
H238        H  0.08216805  0.29861780  0.62714529     0.15500
C239        C  0.04028827  0.26870834  0.69485967     0.37100
C240        C  0.08401772  0.20729245  0.57109782     0.37000
N241        N  0.03207184  0.28136632  0.72071162    -0.43200
N242        N  0.09205553  0.19379798  0.54642714    -0.43200
C243        C  0.25054065  0.32836351  0.40003011     0.00400
C244        C  0.23819599  0.29925908  0.37368132    -0.11500
C245        C  0.25724695  0.29720892  0.33896621     0.02600
C246        C  0.28956603  0.32431374  0.33053479     0.00300
C247        C  0.30226840  0.35306573  0.35713133    -0.11400
C248        C  0.28334444  0.35539877  0.39155998     0.02500
H249        H  0.21319718  0.27833373  0.37924786     0.15500
H250        H  0.32708918  0.37404619  0.35047933     0.15500
C251        C  0.29868910  0.38593083  0.41751000     0.37100
C252        C  0.24248658  0.26783704  0.31077992     0.37000
N253        N  0.31110912  0.41051091  0.43803896    -0.43200
N254        N  0.23056629  0.24440078  0.28794076    -0.43200
C255        C  0.08743742  0.26081679  0.39753075     0.00400
C256        C  0.07950967  0.22788010  0.39070117    -0.11500
C257        C  0.05628127  0.20729313  0.35795242     0.02600
C258        C  0.04043546  0.21948802  0.33107748     0.00300
C259        C  0.04799755  0.25214586  0.33790580    -0.11400
C260        C  0.07125535  0.27285482  0.37051954     0.02500
H261        H  0.09119018  0.21796247  0.41137097     0.15500
H262        H  0.03631929  0.26181626  0.31672451     0.15500
C263        C  0.07885081  0.30670625  0.37394058     0.37100
C264        C  0.04861681  0.17351070  0.35295485     0.37000
N265        N  0.08488967  0.33382145  0.37650523    -0.43200
N266        N  0.54233588  0.14640740  0.34874188    -0.43200
C267        C  0.41972652  0.34395284  0.88091060     0.00400
C268        C  0.42762790  0.36987562  0.85036237    -0.11500
C269        C  0.40484431  0.36639681  0.81737095     0.02600
C270        C  0.37356007  0.33661602  0.81482957     0.00300
C271        C  0.36598404  0.31040134  0.84454324    -0.11400
C272        C  0.38862166  0.31393134  0.87770385     0.02500
H273        H  0.45156743  0.39294409  0.85259966     0.15500
H274        H  0.34203918  0.28733788  0.84225423     0.15500
C275        C  0.37934176  0.28655244  0.90823119     0.37100
C276        C  0.41420212  0.39335417  0.78603816     0.37000
N277        N  0.37176972  0.26465873  0.93286182    -0.43200
N278        N  0.42170821  0.41490376  0.76080805    -0.43200
C279        C  0.08439335  0.41203734  0.87568094     0.00400
C280        C  0.11155130  0.40897569  0.86539908    -0.11500
C281        C  0.13547107  0.43033048  0.83389430     0.02600
C282        C  0.13091315  0.45338186  0.80951835     0.00300
C283        C  0.10146346  0.45291992  0.81572017    -0.11400
C284        C  0.07963608  0.43456962  0.85046791     0.02500
H285        H  0.11490203  0.39105053  0.88362425     0.15500
H286        H  0.09554894  0.46727415  0.79380056     0.15500
C287        C  0.05366546  0.44082935  0.86109121     0.37100
C288        C  0.16464384  0.42850553  0.82793159     0.37000
N289        N  0.03317643  0.44620639  0.86991427    -0.43200
N290        N  0.18795684  0.42691374  0.82310694    -0.43200
C291        C  0.09353470  0.41549426  0.11195433     0.00400
C292        C  0.11626984  0.44967291  0.10454321    -0.11500
C293        C  0.14252000  0.46838918  0.13436751     0.02600
C294        C  0.14124337  0.45613840  0.17823515     0.00300
C295        C  0.11954484  0.42150356  0.18503245    -0.11400
C296        C  0.09830292  0.40090377  0.15050110     0.02500
H297        H  0.11491487  0.46123227  0.07373865     0.15500
H298        H  0.11897189  0.41013625  0.21702445     0.15500
C299        C  0.08266234  0.36523200  0.15492476     0.37100
C300        C  0.17207880  0.99774747  0.11743476     0.37000
N301        N  0.07030860  0.33668669  0.15864268    -0.43200
N302        N  0.19576987  0.02052871  0.10259451    -0.43200
C303        C  0.37487802  0.33591845  0.18315341     0.00400
C304        C  0.36552465  0.31322150  0.14736747    -0.11500
C305        C  0.38888545  0.31681814  0.11514672     0.02600
C306        C  0.42172616  0.34497449  0.11668193     0.00300
C307        C  0.43083848  0.36726378  0.15315236    -0.11400
C308        C  0.40847620  0.36144318  0.18784568     0.02500
H309        H  0.34013292  0.29231761  0.14519481     0.15500
H310        H  0.45579275  0.38895073  0.15511115     0.15500
C311        C  0.42031595  0.38264560  0.22738613     0.37100
C312        C  0.37861212  0.29118657  0.08117755     0.37000
N313        N  0.42977255  0.39970917  0.25894517    -0.43200
N314        N  0.37034097  0.27071143  0.05386019    -0.43200
C315        C  0.45350332  0.13994244  0.18302050     0.00400
C316        C  0.46426438  0.14211884  0.13814742    -0.11500
C317        C  0.44598471  0.11594433  0.10785025     0.02600
C318        C  0.41300842  0.09095365  0.11787254     0.00300
C319        C  0.40025308  0.09098557  0.16052719    -0.11400
C320        C  0.42077974  0.11350995  0.19400132     0.02500
H321        H  0.48848347  0.16236887  0.12790714     0.15500
H322        H  0.37522039  0.07125008  0.16905480     0.15500
C323        C  0.40847610  0.10636904  0.23984108     0.37100
C324        C  0.46330146  0.11126555  0.07141106     0.37000
N325        N  0.39858104  0.10040621  0.27653559    -0.43200
N326        N  0.47633526  0.10515430  0.04348371    -0.43200
C327        C  0.46005813  0.13626277  0.81721441     0.00400
C328        C  0.46976564  0.14634846  0.86201955    -0.11500
C329        C  0.45339776  0.12472149  0.89826141     0.02600
C330        C  0.42561047  0.09219721  0.89021478     0.00300
C331        C  0.41423859  0.08338241  0.84542420    -0.11400
C332        C  0.43134464  0.10463430  0.80914895     0.02500
H333        H  0.49100499  0.17108826  0.86866969     0.18700
H334        H  0.39251791  0.05901365  0.83850645     0.15500
C335        C  0.41967876  0.09255540  0.76395014     0.37100
C336        C  0.46637219  0.13730146  0.94268569     0.37000
N337        N  0.41014653  0.08289104  0.72777845    -0.43200
N338        N  0.47702040  0.14921990  0.97758340    -0.43200
C339        C  0.34819110  0.41964952  0.88869688     0.00400
C340        C  0.34526135  0.42630715  0.84322260    -0.11500
C341        C  0.34083942  0.40397677  0.80873240     0.02600
C342        C  0.33629947  0.37259381  0.81943061     0.00300
C343        C  0.33805180  0.36540122  0.86506465    -0.11400
C344        C  0.34561149  0.38905345  0.89912323     0.02500
H345        H  0.34734290  0.44961702  0.83435386     0.15500
H346        H  0.33393721  0.34133682  0.87432114     0.15500
C347        C  0.35110540  0.38135589  0.94426188     0.37100
C348        C  0.34269560  0.41476992  0.76256700     0.37000
N349        N  0.35474274  0.37531970  0.98090928    -0.43200
N350        N  0.34430792  0.42348083  0.72559814    -0.43200
C351        C  0.33441043  0.36960739  0.17844411     0.00400
C352        C  0.36505532  0.39526269  0.16182956    -0.11500
C353        C  0.36707669  0.41660837  0.12773386     0.02600
C354        C  0.33825884  0.41572128  0.11358345     0.00300
C355        C  0.30740174  0.39028273  0.12983259    -0.11400
C356        C  0.30520205  0.36646658  0.16038627     0.02500
H357        H  0.38778668  0.39995440  0.17631930     0.15500
H358        H  0.28501515  0.38906628  0.11884408     0.15500
C359        C  0.27265405  0.33901634  0.17253950     0.37100
C360        C  0.39927198  0.43995277  0.10871886     0.37000
N361        N  0.24659330  0.31693122  0.18217283    -0.43200
N362        N  0.42502732  0.45854513  0.09342036    -0.43200
C363        C  0.05639418  0.14371845  0.11667125     0.00400
C364        C  0.03046943  0.11895958  0.14309672    -0.11500
C365        C  0.01613701  0.12734978  0.17797994     0.02600
C366        C  0.02702484  0.16109386  0.18611808     0.00300
C367        C  0.05348616  0.18589677  0.16035994    -0.11400
C368        C  0.06831000  0.17750739  0.12613002     0.02500
H369        H  0.02162606  0.09295314  0.13663313     0.15500
H370        H  0.06238900  0.21191739  0.16681747     0.15500
C371        C  0.09610083  0.20390380  0.10171239     0.37100
C372        C  0.49038940  0.10097911  0.20505098     0.37000
N373        N  0.11841951  0.22498233  0.08209290    -0.43200
N374        N  0.46966525  0.07988316  0.22671900    -0.43200
C375        C  0.03298519  0.16241877  0.81125270     0.00400
C376        C  0.02355313  0.12901949  0.81698304    -0.11500
C377        C  0.03839312  0.11991730  0.85024489     0.02600
C378        C  0.06362007  0.14448890  0.87823732     0.00300
C379        C  0.07372443  0.17801847  0.87166888    -0.11400
C380        C  0.05845463  0.18705814  0.83890783     0.02500
H381        H  0.50400641  0.10990601  0.79599240     0.15500
H382        H  0.09280130  0.19701186  0.89329952     0.15500
C383        C  0.06792249  0.22149906  0.83609396     0.37100
C384        C  0.02627912  0.08499888  0.85634128     0.37000
N385        N  0.07529947  0.24905641  0.83400625    -0.43200
N386        N  0.51634523  0.05695800  0.86126889    -0.43200
C387        C  0.16164644  0.02855406  0.81538712     0.00400
C388        C  0.13329081  0.03029619  0.81001243    -0.11500
C389        C  0.12159193  0.04119712  0.84522712     0.02600
C390        C  0.14072663  0.05509467  0.88493215     0.00300
C391        C  0.17082640  0.05603132  0.88865066    -0.11400
C392        C  0.18097265  0.04229372  0.85474295     0.02500
H393        H  0.11932349  0.02164351  0.77874864     0.15500
H394        H  0.18629412  0.06727953  0.91824026     0.15500
C395        C  0.21169790  0.04334884  0.86028460     0.37100
C396        C  0.08916637  0.03654366  0.84030554     0.37000
N397        N  0.23645580  0.04437031  0.86436566    -0.43200
N398        N  0.06307650  0.03254408  0.83624640    -0.43200
C399        C  0.13274477  0.05246267  0.12277523     0.00400
C400        C  0.10916387  0.02436778  0.14723269    -0.11500
C401        C  0.11895889  0.01126412  0.18222741     0.02600
C402        C  0.15295881  0.02624855  0.19295281     0.00300
C403        C  0.17612194  0.05591965  0.17078897    -0.11400
C404        C  0.16638622  0.06860740  0.13534783     0.02500
H405        H  0.08313457  0.01248623  0.13860270     0.15500
H406        H  0.20221554  0.06795413  0.17916105     0.15500
C407        C  0.19140423  0.09764548  0.11124803     0.37100
C408        C  0.09356048  0.48209820  0.20632207     0.37000
N409        N  0.21132447  0.12077513  0.09154539    -0.43200
N410        N  0.07347568  0.45879270  0.22557206    -0.43200
C411        C  0.32570349  0.24550504  0.39826029     0.00400
C412        C  0.30997284  0.23051001  0.35726824    -0.11500
C413        C  0.30862823  0.24961197  0.32206283     0.02600
C414        C  0.32223999  0.28414305  0.32821534     0.00300
C415        C  0.33688686  0.29885498  0.36975008    -0.11400
C416        C  0.33889942  0.27994048  0.40455200     0.02500
H417        H  0.29963979  0.20404672  0.35226816     0.15500
H418        H  0.34769756  0.32541465  0.37449142     0.15500
C419        C  0.35422392  0.29633858  0.44667805     0.37100
C420        C  0.29365188  0.23341680  0.27968010     0.37000
N421        N  0.36648876  0.30937215  0.48049396    -0.43200
N422        N  0.28178485  0.22056834  0.24560811    -0.43200
C423        C  0.32495706  0.24741510  0.59935713     0.00400
C424        C  0.35153997  0.28026876  0.60665773    -0.11500
C425        C  0.35019287  0.30020756  0.64061459     0.02600
C426        C  0.32188934  0.28748069  0.66830348     0.00300
C427        C  0.29499971  0.25508446  0.66064978    -0.11400
C428        C  0.29617494  0.23503906  0.62656064     0.02500
H429        H  0.37361984  0.29045940  0.58590529     0.15500
H430        H  0.27356845  0.24490055  0.68263070     0.15500
C431        C  0.26813675  0.20136325  0.62228780     0.37100
C432        C  0.37840941  0.33357942  0.64706122     0.37000
N433        N  0.24552745  0.17440908  0.61924976    -0.43200
N434        N  0.40096090  0.36030622  0.65252221    -0.43200
C435        C  0.42087133  0.18489203  0.60175414     0.00400
C436        C  0.43121508  0.16194011  0.60158910    -0.11500
C437        C  0.45290460  0.16302589  0.63460905     0.02600
C438        C  0.46485127  0.18740892  0.66893206     0.00300
C439        C  0.45464372  0.21043568  0.66941027    -0.11400
C440        C  0.43304295  0.20955710  0.63604681     0.02500
H441        H  0.42221067  0.14290081  0.57556111     0.15500
H442        H  0.46288277  0.22856219  0.69655113     0.15500
C443        C  0.42229466  0.23296362  0.63928527     0.37100
C444        C  0.46154418  0.13793895  0.63374066     0.37000
N445        N  0.41352583  0.25160166  0.64180153    -0.43200
N446        N  0.46842485  0.11780167  0.63326361    -0.43200
C447        C  0.42312252  0.18714489  0.40101981     0.00400
C448        C  0.43249566  0.21116376  0.36670447    -0.11500
C449        C  0.45407097  0.21424658  0.33181651     0.02600
C450        C  0.46719794  0.19355579  0.33123166     0.00300
C451        C  0.45927911  0.17080949  0.36657225    -0.11400
C452        C  0.43750618  0.16739044  0.40117517     0.02500
H453        H  0.42219201  0.22690483  0.36635283     0.15500
H454        H  0.46925718  0.15476380  0.36621930     0.15500
C455        C  0.43083771  0.14370358  0.43670489     0.37100
C456        C  0.46226827  0.23853080  0.29662757     0.37000
N457        N  0.42559872  0.12473929  0.46515701    -0.43200
N458        N  0.46908834  0.25800115  0.26832855    -0.43200
C459        C  0.22134628  0.04210752  0.67143895     0.00400
C460        C  0.20904469  0.05832843  0.64618284    -0.11500
C461        C  0.22781011  0.08065348  0.61170661     0.02600
C462        C  0.26024189  0.08778745  0.60230145     0.00300
C463        C  0.27256047  0.07152394  0.62800131    -0.11400
C464        C  0.25349632  0.04894612  0.66233846     0.02500
H465        H  0.18433948  0.05317768  0.65320439     0.15500
H466        H  0.29734736  0.07672266  0.62167084     0.15500
C467        C  0.26790404  0.03405411  0.68874842     0.37100
C468        C  0.21231078  0.09467143  0.58573247     0.37000
N469        N  0.27931032  0.52264890  0.71042399    -0.43200
N470        N  0.19964096  0.10569469  0.56502888    -0.43200
C471        C  0.25877191  0.08325942  0.40132081     0.00400
C472        C  0.22643550  0.07697787  0.39590910    -0.11500
C473        C  0.20465216  0.05456634  0.36324124     0.02600
C474        C  0.21487775  0.03764474  0.33477198     0.00300
C475        C  0.24669416  0.04305018  0.34081118    -0.11400
C476        C  0.26857099  0.06545752  0.37349416     0.02500
H477        H  0.21792501  0.08963049  0.41734021     0.15500
H478        H  0.25488817  0.03036389  0.31886395     0.15500
C479        C  0.30115670  0.07022473  0.37634379     0.37100
C480        C  0.17178222  0.04909188  0.36023528     0.37000
N481        N  0.32725066  0.07396374  0.37848950    -0.43200
N482        N  0.14520306  0.54458692  0.35805234    -0.43200
Fe483      Fe  0.34078751  0.63383913  0.50037228     1.65800
Fe484      Fe  0.37520326  0.71854942  0.50072507     1.73200
Fe485      Fe  0.29078893  0.66588339  0.49894677     1.54400
O486        O  0.27187946  0.62685226  0.45339408    -0.81100
O487        O  0.35706906  0.73392932  0.55251624    -0.79400
O488        O  0.30710740  0.60963799  0.44830386    -0.83600
O489        O  0.30378219  0.60844108  0.54858790    -0.78500
O490        O  0.30184197  0.69769145  0.44495614    -0.80300
O491        O  0.40000151  0.70792174  0.54920074    -0.83000
C492        C  0.28080593  0.61130005  0.56577619     0.97800
C493        C  0.28067119  0.60807401  0.43617478     1.05200
O494        O  0.33564980  0.67275922  0.49994874    -1.12000
O495        O  0.39839162  0.70885738  0.44884333    -0.74400
O496        O  0.37864520  0.65436186  0.45265678    -0.77900
O497        O  0.27492891  0.63325437  0.55260303    -0.78600
C498        C  0.39841902  0.68313321  0.43618026     0.96700
O499        O  0.37509380  0.65269736  0.55227521    -0.76600
O500        O  0.35577287  0.73564444  0.45284642    -0.81800
C501        C  0.32827890  0.72709089  0.56349319     0.99300
C502        C  0.32785451  0.72491800  0.43399412     1.05200
O503        O  0.30233075  0.70373891  0.54469347    -0.77400
C504        C  0.39701578  0.68167915  0.56584883     1.03500
N505        N  0.09564007  0.59851133  0.07023724    -0.36100
N506        N  0.07975693  0.63061889  0.99930430    -0.56600
N507        N  0.10227504  0.60145757  0.93232791    -0.36100
N508        N  0.12209899  0.57294662  0.00307644    -0.56600
C509        C  0.08834762  0.61769155  0.09565308     0.27500
C510        C  0.11089305  0.58768621  0.09762925     0.27500
C511        C  0.09818623  0.62268873  0.90645277     0.27500
C512        C  0.12210431  0.59390570  0.90910200     0.27500
C513        C  0.06667429  0.63789462  0.03488146     0.36100
C514        C  0.06892408  0.63814630  0.96151623     0.36100
C515        C  0.12312851  0.55677576  0.04018102     0.36100
C516        C  0.12658441  0.55820678  0.96678874     0.36100
C517        C  0.09886423  0.61882481  0.13971626    -0.21300
C518        C  0.11309710  0.59996866  0.14095747    -0.21300
C519        C  0.11574319  0.62894516  0.86655351    -0.21300
C520        C  0.13126613  0.61124309  0.86850558    -0.21300
C521        C  0.04867504  0.65138783  0.01956191    -0.22400
C522        C  0.04968728  0.65110090  0.97322323    -0.22400
C523        C  0.12867303  0.53188538  0.02749449    -0.22400
C524        C  0.13039758  0.53244025  0.98104209    -0.22400
C525        C  0.07097216  0.63289227  0.08105385    -0.17800
C526        C  0.12117673  0.56547924  0.08545932    -0.17800
C527        C  0.12922699  0.56919330  0.92140839    -0.17700
C528        C  0.07733727  0.63490057  0.91663881    -0.17700
H529        H  0.09642872  0.63181473  0.16817080     0.15200
H530        H  0.12353801  0.59551830  0.17063207     0.15200
H531        H  0.11709357  0.64455945  0.83884773     0.15200
H532        H  0.14671931  0.61040772  0.84230158     0.15200
H533        H  0.03608297  0.66055261  0.03963582     0.13400
H534        H  0.03800387  0.65995700  0.95081311     0.13400
H535        H  0.13133112  0.51519340  0.04947823     0.13400
H536        H  0.13435594  0.51593599  0.96035367     0.13400
H537        H  0.08747475  0.59032661  0.03755343     0.26700
H538        H  0.08854706  0.58928161  0.96099810     0.26700
N539        N  0.37877697  0.00519152  0.93636655    -0.36100
N540        N  0.39482801  0.55390514  0.00524637    -0.56600
N541        N  0.36314467  0.00213569  0.07447754    -0.36100
N542        N  0.34912063  0.95387714  0.00365607    -0.56600
C543        C  0.40388144  0.53370162  0.91728352     0.27500
C544        C  0.37838415  0.97929017  0.91612449     0.27500
C545        C  0.38265940  0.52987393  0.09945883     0.27500
C546        C  0.35833016  0.97564846  0.09866423     0.27500
C547        C  0.39947062  0.57223766  0.96782276     0.36100
C548        C  0.39143170  0.57024609  0.04014662     0.36100
C549        C  0.33639730  0.93601787  0.96537928     0.36100
C550        C  0.33062527  0.93416329  0.03808649     0.36100
C551        C  0.41999196  0.52587910  0.88507139    -0.21300
C552        C  0.40357419  0.99132539  0.88428659    -0.21300
C553        C  0.38930205  0.52079004  0.14081683    -0.21300
C554        C  0.37337518  0.98647092  0.14064649    -0.21300
C555        C  0.39745158  0.59966928  0.97864650    -0.22400
C556        C  0.39321047  0.59885775  0.02484021    -0.22400
C557        C  0.30828379  0.90541064  0.97526833    -0.22400
C558        C  0.30540774  0.90372204  0.02164476    -0.22400
C559        C  0.40954292  0.56587266  0.92602675    -0.17800
C560        C  0.35391464  0.94533182  0.92401764    -0.17800
C561        C  0.34038223  0.94209771  0.08350985    -0.17700
C562        C  0.39355117  0.56278581  0.08569402    -0.17700
H563        H  0.44059618  0.54305585  0.86389250     0.15200
H564        H  0.40968418  0.97692016  0.86244943     0.15200
H565        H  0.40408971  0.53688801  0.16833932     0.15200
H566        H  0.37348515  0.97150100  0.16819965     0.15200
H567        H  0.40053194  0.61912631  0.95609264     0.13400
H568        H  0.39273439  0.61769226  0.04512313     0.13400
H569        H  0.29309417  0.88539354  0.95188612     0.13400
H570        H  0.28732035  0.88224327  0.04071076     0.13400
H571        H  0.36053250  0.00338435  0.95797450     0.26700
H572        H  0.35240949  0.00131161  0.04340225     0.26700
N573        N  0.00635417  0.87342279  0.06616069    -0.36100
N574        N  0.05483716  0.88728841  0.99604632    -0.56600
N575        N  0.00312210  0.87033913  0.92900326    -0.36100
N576        N  0.45413658  0.85288282  0.99825813    -0.56600
C577        C  0.03268982  0.88039224  0.09248667     0.27500
C578        C  0.47894982  0.85948593  0.09279523     0.27500
C579        C  0.02779884  0.87330052  0.90291328     0.27500
C580        C  0.47515203  0.85495991  0.90383832     0.27500
C581        C  0.07584801  0.89888668  0.03174357     0.36100
C582        C  0.07393209  0.89864981  0.95842010     0.36100
C583        C  0.43846302  0.85487185  0.03506845     0.36100
C584        C  0.43717659  0.85355829  0.96202750     0.36100
C585        C  0.02163238  0.87134821  0.13666450    -0.21300
C586        C  0.48789265  0.85678586  0.13635981    -0.21300
C587        C  0.01539151  0.85932000  0.86078949    -0.21300
C588        C  0.48200892  0.84757171  0.86143370    -0.21300
C589        C  0.10833160  0.91514244  0.01629652    -0.22400
C590        C  0.10713653  0.91620640  0.97027286    -0.22400
C591        C  0.41144021  0.85679613  0.02202454    -0.22400
C592        C  0.41048615  0.85551829  0.97573186    -0.22400
C593        C  0.06645874  0.89661471  0.07799517    -0.17800
C594        C  0.44703727  0.85291804  0.08024910    -0.17800
C595        C  0.44472864  0.85105591  0.91669533    -0.17700
C596        C  0.06178209  0.89327389  0.91354376    -0.17700
H597        H  0.03572883  0.87525420  0.16701827     0.15200
H598        H  0.47215075  0.84694977  0.16583202     0.15200
H599        H  0.02931517  0.85901626  0.83201755     0.15200
H600        H  0.46503359  0.83619372  0.83333384     0.15200
H601        H  0.13093576  0.92602337  0.03586585     0.13400
H602        H  0.12862281  0.92861226  0.94859940     0.13400
H603        H  0.39404787  0.85863263  0.04357175     0.13400
H604        H  0.39229525  0.85579982  0.95425214     0.13400
H605        H  0.00775977  0.88180414  0.03348474     0.26700
H606        H  0.00645209  0.88335890  0.95880780     0.26700
C607        C  0.01788912  0.69966214  0.29337739     0.02800
C608        C  0.48466384  0.69125905  0.29123972     0.02800
C609        C  0.46577249  0.67506002  0.25268591    -0.17700
C610        C  0.47745367  0.66293659  0.21859114     0.02800
C611        C  0.01108535  0.67134052  0.22103335     0.02800
C612        C  0.03089868  0.69049057  0.25760176    -0.17700
H613        H  0.05661505  0.69747501  0.25895672     0.04800
H614        H  0.44078235  0.67009326  0.25077441     0.04800
C615        C  0.32471549  0.80593767  0.29031303     0.02800
C616        C  0.30952045  0.82481635  0.29153800     0.02800
C617        C  0.31389310  0.84567722  0.25505459    -0.17700
C618        C  0.33303081  0.84839634  0.21710952     0.02800
C619        C  0.35016040  0.83116475  0.21768110     0.02800
C620        C  0.34516706  0.80973062  0.25367661    -0.17700
H621        H  0.35821792  0.79656354  0.25384187     0.04800
H622        H  0.30217472  0.86011440  0.25635692     0.04800
C623        C  0.48386448  0.68553093  0.70717791     0.02800
C624        C  0.01825827  0.69821056  0.70470680     0.02800
C625        C  0.03364116  0.69103004  0.73960330    -0.17700
C626        C  0.01550074  0.67099583  0.77657049     0.02800
C627        C  0.48097828  0.65844312  0.77919600     0.02800
C628        C  0.46596102  0.66670903  0.74499074    -0.17700
H629        H  0.43965518  0.65730226  0.74686702     0.04800
H630        H  0.05994994  0.70048346  0.73737310     0.04800
C631        C  0.30268644  0.82069812  0.71180488     0.02800
C632        C  0.32248208  0.80664632  0.70864570     0.02800
C633        C  0.34419273  0.81154928  0.74404932    -0.17700
C634        C  0.34859564  0.83223893  0.78077826     0.02800
C635        C  0.32974022  0.84756713  0.78344980     0.02800
C636        C  0.30583102  0.84009433  0.74971054    -0.17700
H637        H  0.29062027  0.85091018  0.75163887     0.04800
H638        H  0.35903464  0.80030365  0.74196402     0.04800
C639        C  0.18578352  0.98442698  0.70563400     0.02800
C640        C  0.19972316  0.51915893  0.70808086     0.02800
C641        C  0.19184470  0.53263447  0.74492663    -0.17700
C642        C  0.16977300  0.51214926  0.77883063     0.02800
C643        C  0.15628423  0.97753062  0.77649561     0.02800
C644        C  0.16434489  0.96415565  0.73998884    -0.17700
H645        H  0.15257645  0.93732574  0.73717979     0.04800
H646        H  0.20235676  0.55932272  0.74661657     0.04800
C647        C  0.18692602  0.98320673  0.29122172     0.02800
C648        C  0.19401780  0.51610558  0.29611988     0.02800
C649        C  0.18321359  0.52939981  0.26270390    -0.17700
C650        C  0.16527555  0.51064204  0.22455799     0.02800
C651        C  0.16083952  0.97851516  0.21762731     0.02800
C652        C  0.17236495  0.96581694  0.25109916    -0.17700
H653        H  0.16867750  0.94128040  0.24725561     0.04800
H654        H  0.18838602  0.55453462  0.26674462     0.04800
Fe655      Fe  0.13519132  0.84123110  0.50004959     1.65800
Fe656      Fe  0.21927360  0.87596794  0.50003333     1.73200
Fe657      Fe  0.16713268  0.79082045  0.49826343     1.54400
O658        O  0.12886614  0.77170482  0.54527578    -0.81100
O659        O  0.23589717  0.85837710  0.44961722    -0.79400
O660        O  0.11176230  0.80723845  0.55198740    -0.83600
O661        O  0.10947788  0.80436707  0.45223033    -0.78500
O662        O  0.20006240  0.80152553  0.55108463    -0.80300
O663        O  0.20895462  0.90018773  0.45043366    -0.83000
C664        C  0.11165980  0.78134258  0.43370360     0.97800
C665        C  0.11022801  0.78046071  0.56310379     1.05200
O666        O  0.17387253  0.83599595  0.49949933    -1.12000
O667        O  0.20937622  0.89946811  0.55098913    -0.74400
O668        O  0.15517893  0.87912331  0.54764587    -0.77900
O669        O  0.13332062  0.77474194  0.44554680    -0.78600
C670        C  0.18372665  0.89903640  0.56401580     0.96700
O671        O  0.15397549  0.87566001  0.44817970    -0.76600
O672        O  0.23518843  0.85656510  0.54911867    -0.81800
C673        C  0.22898858  0.83006105  0.43561165     0.99300
C674        C  0.22576652  0.82800762  0.56527328     1.05200
O675        O  0.20433156  0.80316875  0.45079487    -0.77400
C676        C  0.18279586  0.89712800  0.43390806     1.03500
C677        C  0.18571587  0.92025376  0.39758988     0.00400
C678        C  0.16300526  0.93073362  0.39741353    -0.11500
C679        C  0.16405429  0.95217337  0.36402250     0.02600
C680        C  0.18841145  0.96398803  0.32989446     0.00300
C681        C  0.21117187  0.95357093  0.32968253    -0.11400
C682        C  0.21008682  0.93191710  0.36319863     0.02500
H683        H  0.14405387  0.92187814  0.42334410     0.15500
H684        H  0.22922837  0.96169875  0.30263841     0.15500
C685        C  0.23278139  0.92040314  0.35974836     0.37100
C686        C  0.13848608  0.96001140  0.36390005     0.37000
N687        N  0.25082607  0.91101266  0.35671268    -0.43200
N688        N  0.11774989  0.96593834  0.36365680    -0.43200
C689        C  0.18713876  0.92320068  0.59903386     0.00400
C690        C  0.16975322  0.93952690  0.59338186    -0.11500
C691        C  0.17084548  0.96139735  0.62641693     0.02600
C692        C  0.18963103  0.96732047  0.66609562     0.00300
C693        C  0.20750156  0.95150811  0.67146163    -0.11400
C694        C  0.20665426  0.92981462  0.63826467     0.02500
H695        H  0.15478602  0.93473653  0.56333105     0.15500
H696        H  0.22106538  0.95509013  0.70258641     0.15500
C697        C  0.22399539  0.91281167  0.64689576     0.37100
C698        C  0.15076739  0.97574796  0.62019949     0.37000
N699        N  0.23777244  0.89908850  0.65399217    -0.43200
N700        N  0.13330765  0.48622322  0.61581283    -0.43200
C701        C  0.28265466  0.82033442  0.67318367     0.00400
C702        C  0.29848508  0.84530797  0.64052049    -0.11500
C703        C  0.28053699  0.84838144  0.60542704     0.02600
C704        C  0.24584609  0.82559356  0.60198854     0.00300
C705        C  0.23014721  0.80013508  0.63448077    -0.11400
C706        C  0.24815374  0.79774646  0.67034287     0.02500
H707        H  0.32499122  0.86297598  0.64309411     0.15500
H708        H  0.20359223  0.78264627  0.63264380     0.15500
C709        C  0.23066112  0.77252798  0.70438862     0.37100
C710        C  0.29862758  0.87513340  0.57346017     0.37000
N711        N  0.21653957  0.75236171  0.73173082    -0.43200
N712        N  0.31313916  0.89674643  0.54810103    -0.43200
C713        C  0.03907156  0.71876330  0.66615264     0.00400
C714        C  0.04951129  0.70434104  0.63409292    -0.11500
C715        C  0.07229927  0.72367831  0.60017300     0.02600
C716        C  0.08548799  0.75852655  0.59809117     0.00300
C717        C  0.07428691  0.77266090  0.62989003    -0.11400
C718        C  0.05150364  0.75319289  0.66376817     0.02500
H719        H  0.04008954  0.67785810  0.63597566     0.15500
H720        H  0.08393304  0.79920340  0.62901770     0.15500
C721        C  0.04223254  0.76927173  0.69693347     0.37100
C722        C  0.08101052  0.70675205  0.56758881     0.37000
N723        N  0.03479503  0.78206677  0.72366854    -0.43200
N724        N  0.08788287  0.69307105  0.54151884    -0.43200
C725        C  0.25065179  0.82846202  0.40020499     0.00400
C726        C  0.23850817  0.79912937  0.37444214    -0.11500
C727        C  0.25747589  0.79705507  0.33963064     0.02600
C728        C  0.28959029  0.82434733  0.33061043     0.00300
C729        C  0.30211579  0.85333065  0.35667679    -0.11400
C730        C  0.28321532  0.85572612  0.39108311     0.02500
H731        H  0.21367455  0.77804089  0.38047091     0.15500
H732        H  0.32675428  0.87446964  0.34955664     0.15500
C733        C  0.29829799  0.88662252  0.41618281     0.37100
C734        C  0.24271659  0.76747549  0.31186585     0.37000
N735        N  0.31051397  0.91153020  0.43593833    -0.43200
N736        N  0.23068385  0.74384285  0.28940359    -0.43200
C737        C  0.08733824  0.76077182  0.39767091     0.00400
C738        C  0.07933076  0.72780638  0.39090479    -0.11500
C739        C  0.05600874  0.70719801  0.35825732     0.02600
C740        C  0.04018267  0.71941753  0.33138038     0.00300
C741        C  0.04777305  0.75208792  0.33823398    -0.11400
C742        C  0.07110179  0.77280339  0.37078521     0.02500
H743        H  0.09102211  0.71788929  0.41155496     0.15500
H744        H  0.03608419  0.76177062  0.31709796     0.15500
C745        C  0.07876159  0.80667402  0.37424667     0.37100
C746        C  0.04822058  0.67336623  0.35337530     0.37000
N747        N  0.08486108  0.83380835  0.37684944    -0.43200
N748        N  0.54183021  0.64621860  0.34927143    -0.43200
C749        C  0.42023483  0.84549958  0.88090748     0.00400
C750        C  0.42765802  0.87150007  0.85075339    -0.11500
C751        C  0.40470484  0.86774560  0.81783900     0.02600
C752        C  0.37375946  0.83758408  0.81494147     0.00300
C753        C  0.36666144  0.81134268  0.84434422    -0.11400
C754        C  0.38945225  0.81516021  0.87744539     0.02500
H755        H  0.45134644  0.89482648  0.85323179     0.15500
H756        H  0.34297969  0.78800688  0.84182738     0.15500
C757        C  0.38070688  0.78772399  0.90762071     0.37100
C758        C  0.41353732  0.89483459  0.78696646     0.37000
N759        N  0.37361460  0.76579554  0.93197602    -0.43200
N760        N  0.42059994  0.91649563  0.76212176    -0.43200
C761        C  0.08489183  0.91265875  0.87589430     0.00400
C762        C  0.11205956  0.90956889  0.86578443    -0.11500
C763        C  0.13606951  0.93093213  0.83438819     0.02600
C764        C  0.13153839  0.95393137  0.80984822     0.00300
C765        C  0.10209300  0.95349558  0.81586155    -0.11400
C766        C  0.08022489  0.93521992  0.85059204     0.02500
H767        H  0.11535653  0.89163430  0.88407950     0.15500
H768        H  0.09622389  0.96782696  0.79382264     0.15500
C769        C  0.05430898  0.94158726  0.86108919     0.37100
C770        C  0.16532354  0.92920897  0.82873018     0.37000
N771        N  0.03385863  0.94704269  0.86980637    -0.43200
N772        N  0.18872257  0.92773285  0.82417249    -0.43200
C773        C  0.09365199  0.91568335  0.11214332     0.00400
C774        C  0.11642677  0.94986267  0.10480040    -0.11500
C775        C  0.14268900  0.96850530  0.13463334     0.02600
C776        C  0.14137411  0.95620121  0.17847813     0.00300
C777        C  0.11963557  0.92156040  0.18520002    -0.11400
C778        C  0.09838775  0.90102139  0.15063034     0.02500
H779        H  0.11510154  0.96147471  0.07402688     0.15500
H780        H  0.11903056  0.91013774  0.21715504     0.15500
C781        C  0.08275934  0.86534222  0.15490704     0.37100
C782        C  0.17188116  0.49764244  0.11713433     0.37000
N783        N  0.07041626  0.83678919  0.15848944    -0.43200
N784        N  0.19555721  0.52042917  0.10227311    -0.43200
C785        C  0.37500390  0.83616304  0.18317255     0.00400
C786        C  0.36568442  0.81372729  0.14706428    -0.11500
C787        C  0.38907326  0.81756222  0.11471791     0.02600
C788        C  0.42193245  0.84567319  0.11653204     0.00300
C789        C  0.43100445  0.86771330  0.15329364    -0.11400
C790        C  0.40859009  0.86169743  0.18800550     0.02500
H791        H  0.34028473  0.79286396  0.14469134     0.15500
H792        H  0.45596274  0.88937867  0.15543053     0.15500
C793        C  0.42033569  0.88281658  0.22762599     0.37100
C794        C  0.37880055  0.79223064  0.08030120     0.37000
N795        N  0.42973097  0.89982896  0.25923692    -0.43200
N796        N  0.37053666  0.77201449  0.05260249    -0.43200
C797        C  0.45347362  0.64003971  0.18301901     0.00400
C798        C  0.46429519  0.64225024  0.13816979    -0.11500
C799        C  0.44604460  0.61610860  0.10780719     0.02600
C800        C  0.41307455  0.59106975  0.11777509     0.00300
C801        C  0.40027215  0.59105939  0.16041598    -0.11400
C802        C  0.42074702  0.61358968  0.19392680     0.02500
H803        H  0.48853081  0.66250988  0.12799984     0.15500
H804        H  0.37524393  0.57129465  0.16890405     0.15500
C805        C  0.40840171  0.60645045  0.23974682     0.37100
C806        C  0.46336000  0.61152287  0.07128116     0.37000
N807        N  0.39849601  0.60050962  0.27643742    -0.43200
N808        N  0.47631774  0.60542617  0.04322600    -0.43200
C809        C  0.46010243  0.63618167  0.81686326     0.00400
C810        C  0.46982510  0.64638765  0.86163294    -0.11500
C811        C  0.45354464  0.62482357  0.89795900     0.02600
C812        C  0.42583518  0.59223635  0.89002992     0.00300
C813        C  0.41442328  0.58329945  0.84527675    -0.11400
C814        C  0.43142967  0.60449781  0.80892020     0.02500
H815        H  0.49100713  0.67117965  0.86819151     0.18700
H816        H  0.39274234  0.55888173  0.83845766     0.15500
C817        C  0.41966058  0.59231536  0.76378934     0.37100
C818        C  0.46650733  0.63753645  0.94234448     0.37000
N819        N  0.40998853  0.58253293  0.72770186    -0.43200
N820        N  0.47712427  0.64954882  0.97721006    -0.43200
C821        C  0.34740061  0.91949962  0.88880861     0.00400
C822        C  0.34418726  0.92605859  0.84340179    -0.11500
C823        C  0.33967435  0.90370813  0.80889066     0.02600
C824        C  0.33544611  0.87244642  0.81952930     0.00300
C825        C  0.33739873  0.86531888  0.86513710    -0.11400
C826        C  0.34497470  0.88897589  0.89919344     0.02500
H827        H  0.34613341  0.94931721  0.83460197     0.15500
H828        H  0.33351027  0.84133331  0.87434454     0.15500
C829        C  0.35065157  0.88138780  0.94429847     0.37100
C830        C  0.34116081  0.91438870  0.76275022     0.37000
N831        N  0.35442261  0.87548113  0.98095377    -0.43200
N832        N  0.34246796  0.92300995  0.72579845    -0.43200
C833        C  0.33428300  0.86956889  0.17843129     0.00400
C834        C  0.36487495  0.89519217  0.16161827    -0.11500
C835        C  0.36676737  0.91647147  0.12751160     0.02600
C836        C  0.33790664  0.91559451  0.11362362     0.00300
C837        C  0.30710301  0.89016290  0.13002187    -0.11400
C838        C  0.30501150  0.86637092  0.16052075     0.02500
H839        H  0.38766342  0.89990516  0.17593915     0.15500
H840        H  0.28467762  0.88892366  0.11917559     0.15500
C841        C  0.27251170  0.83887148  0.17276054     0.37100
C842        C  0.39886612  0.93971872  0.10815933     0.37000
N843        N  0.24650329  0.81673489  0.18248249    -0.43200
N844        N  0.42452656  0.95822226  0.09253718    -0.43200
C845        C  0.05589508  0.64335494  0.11680272     0.00400
C846        C  0.03001931  0.61867487  0.14338702    -0.11500
C847        C  0.01585756  0.62718350  0.17837320     0.02600
C848        C  0.02686265  0.66096216  0.18644883     0.00300
C849        C  0.05330573  0.68568300  0.16058945    -0.11400
C850        C  0.06796027  0.67717667  0.12625815     0.02500
H851        H  0.02108289  0.59264244  0.13696767     0.15500
H852        H  0.06229763  0.71172803  0.16700670     0.15500
C853        C  0.09571484  0.70348672  0.10168662     0.37100
C854        C  0.49015189  0.60090915  0.20561294     0.37000
N855        N  0.11799268  0.72447763  0.08190405    -0.43200
N856        N  0.46946826  0.57991320  0.22744632    -0.43200
C857        C  0.03301887  0.66248282  0.81091221     0.00400
C858        C  0.02358570  0.62907991  0.81659627    -0.11500
C859        C  0.03824619  0.61991817  0.85004232     0.02600
C860        C  0.06332494  0.64443598  0.87825546     0.00300
C861        C  0.07345921  0.67797906  0.87171997    -0.11400
C862        C  0.05833893  0.68707512  0.83879015     0.02500
H863        H  0.50413478  0.60999797  0.79545976     0.15500
H864        H  0.09243728  0.69693569  0.89349504     0.15500
C865        C  0.06776504  0.72150640  0.83606788     0.37100
C866        C  0.02607356  0.58498462  0.85611473     0.37000
N867        N  0.07510902  0.74905719  0.83407729    -0.43200
N868        N  0.51609149  0.55693374  0.86104212    -0.43200
C869        C  0.16081231  0.52799284  0.81521837     0.00400
C870        C  0.13246271  0.52974280  0.80981068    -0.11500
C871        C  0.12074436  0.54063014  0.84501878     0.02600
C872        C  0.13984793  0.55448778  0.88475605     0.00300
C873        C  0.16992982  0.55539619  0.88851809    -0.11400
C874        C  0.18009360  0.54167492  0.85461954     0.02500
H875        H  0.11851585  0.52110479  0.77852807     0.15500
H876        H  0.18537285  0.56661315  0.91813642     0.15500
C877        C  0.21079249  0.54268668  0.86022470     0.37100
C878        C  0.08833109  0.53599775  0.84005864     0.37000
N879        N  0.23552732  0.54367008  0.86436804    -0.43200
N880        N  0.06224415  0.53199778  0.83595685    -0.43200
C881        C  0.13226357  0.55209238  0.12253419     0.00400
C882        C  0.10874706  0.52405741  0.14714125    -0.11500
C883        C  0.11863390  0.51104936  0.18214096     0.02600
C884        C  0.15265919  0.52608465  0.19272913     0.00300
C885        C  0.17576263  0.55570155  0.17041750    -0.11400
C886        C  0.16593826  0.56827994  0.13494948     0.02500
H887        H  0.08269518  0.51215459  0.13863224     0.15500
H888        H  0.20187603  0.56776385  0.17868533     0.15500
C889        C  0.19090209  0.59723659  0.11065846     0.37100
C890        C  0.09382372  0.98224384  0.20623125     0.37000
N891        N  0.21079262  0.62029485  0.09081051    -0.43200
N892        N  0.07370625  0.95887167  0.22533511    -0.43200
C893        C  0.32549963  0.74544460  0.39826943     0.00400
C894        C  0.30974852  0.73048479  0.35727269    -0.11500
C895        C  0.30852117  0.74963929  0.32205260     0.02600
C896        C  0.32226938  0.78418911  0.32819234     0.00300
C897        C  0.33693511  0.79887840  0.36972664    -0.11400
C898        C  0.33883770  0.77991114  0.40454718     0.02500
H899        H  0.29931040  0.70400360  0.35227613     0.15500
H900        H  0.34782273  0.82545110  0.37446036     0.15500
C901        C  0.35419611  0.79629057  0.44667175     0.37100
C902        C  0.29348577  0.73347205  0.27968118     0.37000
N903        N  0.36649131  0.80930310  0.48048618    -0.43200
N904        N  0.28154849  0.72065125  0.24562361    -0.43200
C905        C  0.32509860  0.74762735  0.59919163     0.00400
C906        C  0.35235117  0.77992612  0.60765816    -0.11500
C907        C  0.35123349  0.79998283  0.64161726     0.02600
C908        C  0.32249782  0.78792842  0.66824663     0.00300
C909        C  0.29488222  0.75619527  0.65925198    -0.11400
C910        C  0.29584566  0.73602321  0.62514242     0.02500
H911        H  0.37477809  0.78962400  0.58776814     0.15500
H912        H  0.27293714  0.74662937  0.68013029     0.15500
C913        C  0.26695209  0.70301974  0.61941556     0.37100
C914        C  0.38001963  0.83288405  0.64886387     0.37000
N915        N  0.24366639  0.67660646  0.61513107    -0.43200
N916        N  0.40301479  0.85924715  0.65490316    -0.43200
C917        C  0.42061504  0.68461317  0.60154509     0.00400
C918        C  0.42971527  0.66069803  0.60252044    -0.11500
C919        C  0.45143444  0.66174410  0.63543488     0.02600
C920        C  0.46471072  0.68707893  0.66848136     0.00300
C921        C  0.45585693  0.71114173  0.66776503    -0.11400
C922        C  0.43416291  0.71025791  0.63454551     0.02500
H923        H  0.41972641  0.64093532  0.57746249     0.15500
H924        H  0.46518556  0.73008458  0.69392390     0.15500
C925        C  0.42478080  0.73477058  0.63667776     0.37100
C926        C  0.45885635  0.63576729  0.63570415     0.37000
N927        N  0.41710785  0.75429992  0.63833536    -0.43200
N928        N  0.46476392  0.61492408  0.63612493    -0.43200
C929        C  0.42274216  0.68693445  0.40096846     0.00400
C930        C  0.43193739  0.71083421  0.36653006    -0.11500
C931        C  0.45357955  0.71401835  0.33169257     0.02600
C932        C  0.46693291  0.69352622  0.33124809     0.00300
C933        C  0.45916723  0.67088514  0.36668845    -0.11400
C934        C  0.43734820  0.66738621  0.40127101     0.02500
H935        H  0.42147067  0.72642995  0.36607092     0.15500
H936        H  0.46931761  0.65498982  0.36644484     0.15500
C937        C  0.43090145  0.64386775  0.43694800     0.37100
C938        C  0.46164156  0.73823741  0.29645459     0.37000
N939        N  0.42586298  0.62504337  0.46551589    -0.43200
N940        N  0.46834297  0.75767236  0.26814224    -0.43200
C941        C  0.22081566  0.54201894  0.67138596     0.00400
C942        C  0.20849454  0.55818551  0.64603259    -0.11500
C943        C  0.22732704  0.58060758  0.61165889     0.02600
C944        C  0.25978953  0.58780069  0.60234988     0.00300
C945        C  0.27213259  0.57161055  0.62816150    -0.11400
C946        C  0.25304803  0.54901759  0.66248146     0.02500
H947        H  0.18374049  0.55294204  0.65292170     0.15500
H948        H  0.29696486  0.57689964  0.62194896     0.15500
C949        C  0.26752584  0.53429911  0.68911434     0.37100
C950        C  0.21188939  0.59469485  0.58569953     0.37000
N951        N  0.27963113  0.02224992  0.70985069    -0.43200
N952        N  0.19926594  0.60577290  0.56501059    -0.43200
C953        C  0.25856125  0.58324042  0.40115136     0.00400
C954        C  0.22617226  0.57683345  0.39581284    -0.11500
C955        C  0.20443642  0.55446099  0.36306265     0.02600
C956        C  0.21475247  0.53768224  0.33446130     0.00300
C957        C  0.24663764  0.54324466  0.34038204    -0.11400
C958        C  0.26848118  0.56564228  0.37310272     0.02500
H959        H  0.21758449  0.58935829  0.41736229     0.15500
H960        H  0.25490943  0.53069085  0.31830849     0.15500
C961        C  0.30116453  0.57062887  0.37573022     0.37100
C962        C  0.17152182  0.54887663  0.36010665     0.37000
N963        N  0.32733812  0.57454454  0.37766549    -0.43200
N964        N  0.14549794  0.04488603  0.35814832    -0.43200
Fe965      Fe  0.84118590  0.13401114  0.50031707     1.65800
Fe966      Fe  0.87546711  0.21874950  0.50084093     1.73200
Fe967      Fe  0.79103623  0.16591354  0.49899518     1.54400
O968        O  0.77227360  0.12711336  0.45316202    -0.81100
O969        O  0.85714586  0.23423036  0.55231394    -0.79400
O970        O  0.80726906  0.10958979  0.44855765    -0.83600
O971        O  0.80441781  0.10866942  0.54880402    -0.78500
O972        O  0.80207477  0.19795066  0.44528665    -0.80300
O973        O  0.90006684  0.20819059  0.54973878    -0.83000
C974        C  0.78124360  0.11130400  0.56574736     0.97800
C975        C  0.78093664  0.10815964  0.43622493     1.05200
O976        O  0.83595436  0.17289777  0.49998376    -1.12000
O977        O  0.89895818  0.20909870  0.44926714    -0.74400
O978        O  0.87879181  0.15449507  0.45230305    -0.77900
O979        O  0.77514664  0.13305177  0.55234799    -0.78600
C980        C  0.89878086  0.18333826  0.43621347     0.96700
O981        O  0.87575676  0.15299192  0.55191712    -0.76600
O982        O  0.85612443  0.23569295  0.45259368    -0.81800
C983        C  0.82829901  0.22704687  0.56360856     0.99300
C984        C  0.82812803  0.22503851  0.43401046     1.05200
O985        O  0.80237714  0.20346920  0.54508719    -0.77400
C986        C  0.89734737  0.18195192  0.56596121     1.03500
N987        N  0.59631264  0.09901307  0.07028587    -0.36100
N988        N  0.58032919  0.13099665  0.99925799    -0.56600
N989        N  0.60294532  0.10187952  0.93239999    -0.36100
N990        N  0.62286809  0.07349074  0.00325223    -0.56600
C991        C  0.58904135  0.11824051  0.09563159     0.27500
C992        C  0.61153446  0.08818488  0.09773653     0.27500
C993        C  0.59870437  0.12297754  0.90644595     0.27500
C994        C  0.62288183  0.09444115  0.90923614     0.27500
C995        C  0.56717464  0.13820451  0.03481125     0.36100
C996        C  0.56930579  0.13829022  0.96145758     0.36100
C997        C  0.62382512  0.05727706  0.04036134     0.36100
C998        C  0.62744685  0.05880948  0.96697245     0.36100
C999        C  0.59956063  0.11942145  0.13970471    -0.21300
C1000       C  0.61375294  0.10052533  0.14103023    -0.21300
C1001       C  0.61627575  0.12927137  0.86655521    -0.21300
C1002       C  0.63197156  0.11173631  0.86860201    -0.21300
C1003       C  0.54892419  0.15141368  0.01946472    -0.22400
C1004       C  0.54986994  0.15102744  0.97312892    -0.22400
C1005       C  0.62942416  0.03242026  0.02768547    -0.22400
C1006       C  0.63126686  0.03304903  0.98123701    -0.22400
C1007       C  0.57159057  0.13335275  0.08098693    -0.17800
C1008       C  0.62176986  0.06592375  0.08564016    -0.17800
C1009       C  0.63010371  0.06980288  0.92158547    -0.17700
C1010       C  0.57772466  0.13504101  0.91659248    -0.17700
H1011       H  0.59711957  0.13244010  0.16811811     0.15200
H1012       H  0.62417061  0.09608203  0.17073649     0.15200
H1013       H  0.61752448  0.14479996  0.83879717     0.15200
H1014       H  0.64746863  0.11095509  0.84241879     0.15200
H1015       H  0.53619192  0.16043163  0.03951998     0.13400
H1016       H  0.53799038  0.15965421  0.95069237     0.13400
H1017       H  0.63203939  0.01569933  0.04967092     0.13400
H1018       H  0.63528361  0.01658134  0.96055709     0.13400
H1019       H  0.58812235  0.09077486  0.03762468     0.26700
H1020       H  0.58924324  0.08969272  0.96108231     0.26700
N1021       N  0.87927699  0.50529498  0.93626533    -0.36100
N1022       N  0.89452884  0.05379686  0.00535880    -0.56600
N1023       N  0.86348722  0.50224082  0.07431039    -0.36100
N1024       N  0.84969389  0.45398409  0.00352196    -0.56600
C1025       C  0.90339724  0.03356048  0.91732003     0.27500
C1026       C  0.87901693  0.47944551  0.91607237     0.27500
C1027       C  0.88243697  0.02975877  0.09957999     0.27500
C1028       C  0.85869259  0.47577507  0.09853133     0.27500
C1029       C  0.89918712  0.07216209  0.96796532     0.36100
C1030       C  0.89123947  0.07016994  0.04030563     0.36100
C1031       C  0.83701621  0.43613210  0.96522541     0.36100
C1032       C  0.83113691  0.43427976  0.03792123     0.36100
C1033       C  0.91938249  0.02565419  0.88501297    -0.21300
C1034       C  0.90428743  0.49156058  0.88434848    -0.21300
C1035       C  0.88912743  0.02065090  0.14088557    -0.21300
C1036       C  0.87363144  0.48661700  0.14057078    -0.21300
C1037       C  0.89727731  0.09964658  0.97885835    -0.22400
C1038       C  0.89309074  0.09883052  0.02506211    -0.22400
C1039       C  0.80886390  0.40554425  0.97506080    -0.22400
C1040       C  0.80591889  0.40385368  0.02143391    -0.22400
C1041       C  0.90919834  0.06577972  0.92613287    -0.17800
C1042       C  0.85459529  0.44546050  0.92390907    -0.17800
C1043       C  0.84081720  0.44222251  0.08337483    -0.17700
C1044       C  0.89340373  0.06268743  0.08582032    -0.17700
H1045       H  0.93997189  0.04278097  0.86377567     0.15200
H1046       H  0.91051744  0.47721581  0.86258219     0.15200
H1047       H  0.90400954  0.03674031  0.16835865     0.15200
H1048       H  0.87371408  0.47166563  0.16816930     0.15200
H1049       H  0.90040705  0.11914234  0.95634219     0.13400
H1050       H  0.89270821  0.11769664  0.04539231     0.13400
H1051       H  0.79368205  0.38554473  0.95165159     0.13400
H1052       H  0.78777573  0.38238669  0.04046564     0.13400
H1053       H  0.86096293  0.50342776  0.95778635     0.26700
H1054       H  0.85279708  0.50138456  0.04318422     0.26700
N1055       N  0.50609692  0.37274774  0.06616169    -0.36100
N1056       N  0.55457841  0.38685187  0.99595037    -0.56600
N1057       N  0.50263801  0.36916395  0.92903053    -0.36100
N1058       N  0.95361004  0.35144661  0.99837311    -0.56600
C1059       C  0.53254912  0.38005993  0.09247172     0.27500
C1060       C  0.97875099  0.35884455  0.09291149     0.27500
C1061       C  0.52740670  0.37240156  0.90286825     0.27500
C1062       C  0.97462737  0.35345066  0.90396507     0.27500
C1063       C  0.57563944  0.39857718  0.03158894     0.36100
C1064       C  0.57360388  0.39818366  0.95826030     0.36100
C1065       C  0.93800284  0.35360340  0.03514369     0.36100
C1066       C  0.93653924  0.35189149  0.96211543     0.36100
C1067       C  0.52161104  0.37126638  0.13673741    -0.21300
C1068       C  0.98784771  0.35650966  0.13653324    -0.21300
C1069       C  0.51502531  0.35825659  0.86082050    -0.21300
C1070       C  0.98155939  0.34610344  0.86158191    -0.21300
C1071       C  0.60810264  0.41489944  0.01603850    -0.22400
C1072       C  0.60682565  0.41585995  0.97000633    -0.22400
C1073       C  0.91089802  0.35536939  0.02205140    -0.22400
C1074       C  0.90983456  0.35385670  0.97577822    -0.22400
C1075       C  0.56630495  0.39635158  0.07786689    -0.17800
C1076       C  0.94674796  0.35202252  0.08036631    -0.17800
C1077       C  0.94410595  0.34934075  0.91679904    -0.17700
C1078       C  0.56138145  0.39264014  0.91341512    -0.17700
H1079       H  0.53580329  0.37547948  0.16708559     0.15200
H1080       H  0.97218604  0.34679954  0.16609550     0.15200
H1081       H  0.52899692  0.35807405  0.83202777     0.15200
H1082       H  0.96456650  0.33450968  0.83354799     0.15200
H1083       H  0.63074364  0.42587305  0.03553785     0.13400
H1084       H  0.62826328  0.42824158  0.94823997     0.13400
H1085       H  0.89354915  0.35731092  0.04355595     0.13400
H1086       H  0.89157550  0.35404027  0.95431614     0.13400
H1087       H  0.50734724  0.38086854  0.03341213     0.26700
H1088       H  0.50587126  0.38222162  0.95873402     0.26700
C1089       C  0.51809500  0.19969810  0.29315050     0.02800
C1090       C  0.98484584  0.19122172  0.29116821     0.02800
C1091       C  0.96588237  0.17495953  0.25269715    -0.17700
C1092       C  0.97753727  0.16286604  0.21852128     0.02800
C1093       C  0.51121237  0.17137261  0.22079414     0.02800
C1094       C  0.53107376  0.19056516  0.25730120    -0.17700
H1095       H  0.55681439  0.19762137  0.25854813     0.04800
H1096       H  0.94087772  0.16996115  0.25089555     0.04800
C1097       C  0.82467831  0.30588302  0.29031654     0.02800
C1098       C  0.80955722  0.32483212  0.29153690     0.02800
C1099       C  0.81393745  0.34568996  0.25504444    -0.17700
C1100       C  0.83305675  0.34836838  0.21710136     0.02800
C1101       C  0.85010207  0.33105032  0.21767087     0.02800
C1102       C  0.84507806  0.30961048  0.25366242    -0.17700
H1103       H  0.85807810  0.29639166  0.25381344     0.04800
H1104       H  0.80224734  0.36015404  0.25634114     0.04800
C1105       C  0.98397607  0.18574807  0.70761050     0.02800
C1106       C  0.51834253  0.19821990  0.70506067     0.02800
C1107       C  0.53363208  0.19089159  0.73991855    -0.17700
C1108       C  0.51547226  0.17094306  0.77692147     0.02800
C1109       C  0.98099108  0.15856429  0.77961056     0.02800
C1110       C  0.96605108  0.16698588  0.74546352    -0.17700
H1111       H  0.93977157  0.15769687  0.74738650     0.04800
H1112       H  0.55990979  0.20020069  0.73765711     0.04800
C1113       C  0.80272077  0.32077827  0.71192646     0.02800
C1114       C  0.82197809  0.30612781  0.70879952     0.02800
C1115       C  0.84365844  0.31074613  0.74409195    -0.17700
C1116       C  0.84850182  0.33164333  0.78075022     0.02800
C1117       C  0.83018595  0.34754296  0.78340951     0.02800
C1118       C  0.80633463  0.34041711  0.74974822    -0.17700
H1119       H  0.79150737  0.35165823  0.75168689     0.04800
H1120       H  0.85818351  0.29915831  0.74191675     0.04800
C1121       C  0.68534225  0.48425626  0.70542324     0.02800
C1122       C  0.70030378  0.01935338  0.70822203     0.02800
C1123       C  0.69258279  0.03297045  0.74506645    -0.17700
C1124       C  0.67052352  0.01260011  0.77904460     0.02800
C1125       C  0.65565241  0.47709576  0.77620469     0.02800
C1126       C  0.66386306  0.46386450  0.73967548    -0.17700
H1127       H  0.65217895  0.43705101  0.73675287     0.04800
H1128       H  0.70319200  0.05967717  0.74667945     0.04800
C1129       C  0.68693666  0.48326935  0.29084237     0.02800
C1130       C  0.69412478  0.01608595  0.29643764     0.02800
C1131       C  0.68342693  0.02944471  0.26296891    -0.17700
C1132       C  0.66548442  0.01071873  0.22480767     0.02800
C1133       C  0.66073789  0.47849263  0.21733171     0.02800
C1134       C  0.67238364  0.46586908  0.25072697    -0.17700
H1135       H  0.66875902  0.44135941  0.24685203     0.04800
H1136       H  0.68869010  0.05461413  0.26698094     0.04800
Fe1137     Fe  0.63507650  0.34119929  0.49996227     1.65800
Fe1138     Fe  0.71921068  0.37615929  0.49967382     1.73200
Fe1139     Fe  0.66729112  0.29096652  0.49835005     1.54400
O1140       O  0.62956526  0.27207261  0.54611110    -0.81100
O1141       O  0.73608233  0.35827077  0.44993809    -0.79400
O1142       O  0.61139006  0.30678586  0.55146523    -0.83600
O1143       O  0.60973022  0.30471110  0.45164656    -0.78500
O1144       O  0.70081255  0.30209281  0.55057249    -0.80300
O1145       O  0.70887618  0.39984882  0.44940858    -0.83000
C1146       C  0.61163767  0.28135665  0.43371208     0.97800
C1147       C  0.61045503  0.28043493  0.56335529     1.05200
O1148       O  0.67385449  0.33609227  0.49937515    -1.12000
O1149       O  0.70921501  0.40009373  0.54988435    -0.74400
O1150       O  0.65478946  0.37870021  0.54806084    -0.77900
O1151       O  0.63292989  0.27441894  0.44624047    -0.78600
C1152       C  0.68345551  0.39914260  0.56364416     0.96700
O1153       O  0.65397488  0.37604774  0.44851415    -0.76600
O1154       O  0.73500806  0.35725004  0.54950449    -0.81800
C1155       C  0.72888387  0.32996966  0.43544241     0.99300
C1156       C  0.72606635  0.32874253  0.56534371     1.05200
O1157       O  0.70396405  0.30310677  0.45016874    -0.77400
C1158       C  0.68270839  0.39711550  0.43352300     1.03500
C1159       C  0.68556774  0.42017256  0.39710868     0.00400
C1160       C  0.66277779  0.43055757  0.39679604    -0.11500
C1161       C  0.66386943  0.45202972  0.36342328     0.02600
C1162       C  0.68838214  0.46402781  0.32950159     0.00300
C1163       C  0.71120636  0.45369708  0.32939066    -0.11400
C1164       C  0.71005242  0.43196865  0.36283785     0.02500
H1165       H  0.64373023  0.42160945  0.42259750     0.15500
H1166       H  0.72936174  0.46194026  0.30246090     0.15500
C1167       C  0.73282888  0.42054812  0.35944055     0.37100
C1168       C  0.63817571  0.45969220  0.36304816     0.37000
N1169       N  0.75093381  0.41122561  0.35647688    -0.43200
N1170       N  0.61734411  0.46548059  0.36254201    -0.43200
C1171       C  0.68687017  0.42330770  0.59862659     0.00400
C1172       C  0.66916527  0.43932023  0.59323655    -0.11500
C1173       C  0.67020777  0.46112218  0.62633309     0.02600
C1174       C  0.68926067  0.46728443  0.66579533     0.00300
C1175       C  0.70746310  0.45179776  0.67088452    -0.11400
C1176       C  0.70667127  0.43017923  0.63760930     0.02500
H1177       H  0.65397611  0.43431564  0.56336743     0.15500
H1178       H  0.72123063  0.45555143  0.70185984     0.15500
C1179       C  0.72435555  0.41348225  0.64591201     0.37100
C1180       C  0.64979252  0.47512773  0.62046072     0.37000
N1181       N  0.73839697  0.39998910  0.65271806    -0.43200
N1182       N  0.63455379  0.98711972  0.61523035    -0.43200
C1183       C  0.78288106  0.32086838  0.67336963     0.00400
C1184       C  0.79810439  0.34784073  0.64350987    -0.11500
C1185       C  0.78016326  0.35118294  0.60866376     0.02600
C1186       C  0.74613401  0.32654747  0.60237738     0.00300
C1187       C  0.73103985  0.29929835  0.63233298    -0.11400
C1188       C  0.74893376  0.29668579  0.66815321     0.02500
H1189       H  0.82409739  0.36682378  0.64814574     0.15500
H1190       H  0.70493409  0.28047348  0.62862347     0.15500
C1191       C  0.73171002  0.26975900  0.70004540     0.37100
C1192       C  0.79760650  0.38030082  0.58020817     0.37000
N1193       N  0.71776768  0.24823759  0.72569645    -0.43200
N1194       N  0.81158110  0.40383731  0.55778393    -0.43200
C1195       C  0.53924787  0.21868950  0.66647628     0.00400
C1196       C  0.55098118  0.20461350  0.63581973    -0.11500
C1197       C  0.57386506  0.22395518  0.60200495     0.02600
C1198       C  0.58581787  0.25850320  0.59850515     0.00300
C1199       C  0.57341976  0.27229826  0.62899290    -0.11400
C1200       C  0.55058532  0.25282750  0.66284181     0.02500
H1201       H  0.54249956  0.17839123  0.63874943     0.15500
H1202       H  0.58216818  0.29861804  0.62714512     0.15500
C1203       C  0.54028830  0.26870858  0.69485944     0.37100
C1204       C  0.58401802  0.20729268  0.57109812     0.37000
N1205       N  0.53207187  0.28136652  0.72071146    -0.43200
N1206       N  0.59205592  0.19379825  0.54642753    -0.43200
C1207       C  0.75054072  0.32836353  0.40003017     0.00400
C1208       C  0.73819595  0.29925915  0.37368128    -0.11500
C1209       C  0.75724687  0.29720893  0.33896621     0.02600
C1210       C  0.78956603  0.32431367  0.33053490     0.00300
C1211       C  0.80226856  0.35306558  0.35713163    -0.11400
C1212       C  0.78334460  0.35539866  0.39156025     0.02500
H1213       H  0.71319708  0.27833389  0.37924773     0.15500
H1214       H  0.82708944  0.37404592  0.35047986     0.15500
C1215       C  0.79868943  0.38593055  0.41751065     0.37100
C1216       C  0.74248634  0.26783713  0.31077977     0.37000
N1217       N  0.81110961  0.41051046  0.43804000    -0.43200
N1218       N  0.73056586  0.24440096  0.28794043    -0.43200
C1219       C  0.58743746  0.26081697  0.39753068     0.00400
C1220       C  0.57950965  0.22788026  0.39070121    -0.11500
C1221       C  0.55628127  0.20729328  0.35795243     0.02600
C1222       C  0.54043550  0.21948818  0.33107742     0.00300
C1223       C  0.54799762  0.25214604  0.33790571    -0.11400
C1224       C  0.57125544  0.27285500  0.37051943     0.02500
H1225       H  0.59119013  0.21796265  0.41137116     0.15500
H1226       H  0.53631940  0.26181652  0.31672448     0.15500
C1227       C  0.57885107  0.30670651  0.37394022     0.37100
C1228       C  0.54861669  0.17351080  0.35295509     0.37000
N1229       N  0.58489011  0.33382179  0.37650459    -0.43200
N1230       N  0.04233618  0.14640737  0.34874151    -0.43200
C1231       C  0.91972646  0.34395238  0.88091052     0.00400
C1232       C  0.92762800  0.36987506  0.85036194    -0.11500
C1233       C  0.90484446  0.36639624  0.81737051     0.02600
C1234       C  0.87356007  0.33661558  0.81482944     0.00300
C1235       C  0.86598388  0.31040103  0.84454340    -0.11400
C1236       C  0.88862145  0.31393102  0.87770410     0.02500
H1237       H  0.95156765  0.39294343  0.85259900     0.15500
H1238       H  0.84203889  0.28733768  0.84225463     0.15500
C1239       C  0.87934134  0.28655221  0.90823175     0.37100
C1240       C  0.91420240  0.39335347  0.78603740     0.37000
N1241       N  0.87176907  0.26465852  0.93286251    -0.43200
N1242       N  0.92170855  0.41490297  0.76080709    -0.43200
C1243       C  0.58439334  0.41203740  0.87568069     0.00400
C1244       C  0.61155128  0.40897573  0.86539895    -0.11500
C1245       C  0.63547109  0.43033053  0.83389422     0.02600
C1246       C  0.63091326  0.45338196  0.80951828     0.00300
C1247       C  0.60146362  0.45292011  0.81572009    -0.11400
C1248       C  0.57963616  0.43456977  0.85046769     0.02500
H1249       H  0.61490205  0.39105060  0.88362419     0.15500
H1250       H  0.59554915  0.46727436  0.79380049     0.15500
C1251       C  0.55366558  0.44082956  0.86109092     0.37100
C1252       C  0.66464383  0.42850553  0.82793158     0.37000
N1253       N  0.53317659  0.44620665  0.86991393    -0.43200
N1254       N  0.68795682  0.42691373  0.82310693    -0.43200
C1255       C  0.59353490  0.41549441  0.11195407     0.00400
C1256       C  0.61627006  0.44967309  0.10454294    -0.11500
C1257       C  0.64252028  0.46838935  0.13436715     0.02600
C1258       C  0.64124372  0.45613854  0.17823474     0.00300
C1259       C  0.61954518  0.42150371  0.18503209    -0.11400
C1260       C  0.59830319  0.40090393  0.15050078     0.02500
H1261       H  0.61491502  0.46123242  0.07373839     0.15500
H1262       H  0.61897228  0.41013639  0.21702405     0.15500
C1263       C  0.58266261  0.36523215  0.15492443     0.37100
C1264       C  0.67207891  0.99774754  0.11743460     0.37000
N1265       N  0.57030880  0.33668682  0.15864232    -0.43200
N1266       N  0.69577002  0.02052886  0.10259457    -0.43200
C1267       C  0.87487771  0.33591826  0.18315319     0.00400
C1268       C  0.86552440  0.31322132  0.14736723    -0.11500
C1269       C  0.88888526  0.31681797  0.11514662     0.02600
C1270       C  0.92172592  0.34497435  0.11668178     0.00300
C1271       C  0.93083821  0.36726363  0.15315218    -0.11400
C1272       C  0.90847592  0.36144296  0.18784553     0.02500
H1273       H  0.84013267  0.29231746  0.14519443     0.15500
H1274       H  0.95579247  0.38895058  0.15511089     0.15500
C1275       C  0.92031566  0.38264539  0.22738595     0.37100
C1276       C  0.87861191  0.29118646  0.08117738     0.37000
N1277       N  0.92977223  0.39970911  0.25894485    -0.43200
N1278       N  0.87034066  0.27071142  0.05385986    -0.43200
C1279       C  0.95350344  0.13994235  0.18302052     0.00400
C1280       C  0.96426447  0.14211873  0.13814740    -0.11500
C1281       C  0.94598477  0.11594424  0.10785025     0.02600
C1282       C  0.91300849  0.09095354  0.11787260     0.00300
C1283       C  0.90025319  0.09098545  0.16052728    -0.11400
C1284       C  0.92077986  0.11350986  0.19400141     0.02500
H1285       H  0.98848354  0.16236874  0.12790708     0.15500
H1286       H  0.87522051  0.07124998  0.16905487     0.15500
C1287       C  0.90847626  0.10636897  0.23984116     0.37100
C1288       C  0.96330148  0.11126544  0.07141103     0.37000
N1289       N  0.89858120  0.10040600  0.27653567    -0.43200
N1290       N  0.97633524  0.10515410  0.04348373    -0.43200
C1291       C  0.96005805  0.13626262  0.81721439     0.00400
C1292       C  0.96976565  0.14634834  0.86201949    -0.11500
C1293       C  0.95339779  0.12472139  0.89826136     0.02600
C1294       C  0.92561048  0.09219711  0.89021479     0.00300
C1295       C  0.91423851  0.08338231  0.84542430    -0.11400
C1296       C  0.93134451  0.10463417  0.80914904     0.02500
H1297       H  0.99100498  0.17108813  0.86866965     0.18700
H1298       H  0.89251779  0.05901358  0.83850664     0.15500
C1299       C  0.91967854  0.09255519  0.76395032     0.37100
C1300       C  0.96637222  0.13730130  0.94268565     0.37000
N1301       N  0.91014625  0.08289075  0.72777869    -0.43200
N1302       N  0.97702038  0.14921965  0.97758343    -0.43200
C1303       C  0.84819139  0.41964956  0.88869682     0.00400
C1304       C  0.84526175  0.42630720  0.84322250    -0.11500
C1305       C  0.84083991  0.40397683  0.80873232     0.02600
C1306       C  0.83629990  0.37259382  0.81943059     0.00300
C1307       C  0.83805212  0.36540124  0.86506465    -0.11400
C1308       C  0.84561176  0.38905348  0.89912320     0.02500
H1309       H  0.84734328  0.44961707  0.83435381     0.15500
H1310       H  0.83393746  0.34133682  0.87432118     0.15500
C1311       C  0.85110555  0.38135589  0.94426190     0.37100
C1312       C  0.84269621  0.41476998  0.76256691     0.37000
N1313       N  0.85474283  0.37531969  0.98090932    -0.43200
N1314       N  0.84430863  0.42348084  0.72559801    -0.43200
C1315       C  0.83441016  0.36960738  0.17844401     0.00400
C1316       C  0.86505510  0.39526262  0.16182941    -0.11500
C1317       C  0.86707655  0.41660835  0.12773370     0.02600
C1318       C  0.83825870  0.41572131  0.11358328     0.00300
C1319       C  0.80740159  0.39028290  0.12983255    -0.11400
C1320       C  0.80520182  0.36646676  0.16038632     0.02500
H1321       H  0.88778641  0.39995416  0.17631905     0.15500
H1322       H  0.78501504  0.38906657  0.11884412     0.15500
C1323       C  0.77265381  0.33901665  0.17253973     0.37100
C1324       C  0.89927189  0.43995266  0.10871861     0.37000
N1325       N  0.74659311  0.31693152  0.18217321    -0.43200
N1326       N  0.92502727  0.45854487  0.09342004    -0.43200
C1327       C  0.55639408  0.14371852  0.11667128     0.00400
C1328       C  0.53046935  0.11895963  0.14309679    -0.11500
C1329       C  0.51613691  0.12734981  0.17797998     0.02600
C1330       C  0.52702471  0.16109391  0.18611805     0.00300
C1331       C  0.55348600  0.18589683  0.16035989    -0.11400
C1332       C  0.56830988  0.17750746  0.12613001     0.02500
H1333       H  0.52162599  0.09295320  0.13663324     0.15500
H1334       H  0.56238878  0.21191744  0.16681734     0.15500
C1335       C  0.59610072  0.20390383  0.10171241     0.37100
C1336       C  0.99038954  0.10097907  0.20505097     0.37000
N1337       N  0.61841940  0.22498233  0.08209289    -0.43200
N1338       N  0.96966547  0.07988310  0.22671906    -0.43200
C1339       C  0.53298533  0.16241908  0.81125293     0.00400
C1340       C  0.52355329  0.12901980  0.81698311    -0.11500
C1341       C  0.53839332  0.11991756  0.85024485     0.02600
C1342       C  0.56362024  0.14448912  0.87823737     0.00300
C1343       C  0.57372450  0.17801869  0.87166915    -0.11400
C1344       C  0.55845467  0.18705839  0.83890820     0.02500
H1345       H  0.00400625  0.10990565  0.79599238     0.15500
H1346       H  0.59280130  0.19701205  0.89329991     0.15500
C1347       C  0.56792249  0.22149930  0.83609454     0.37100
C1348       C  0.52627941  0.08499913  0.85634103     0.37000
N1349       N  0.57529948  0.24905667  0.83400695    -0.43200
N1350       N  0.01634481  0.05695773  0.86126925    -0.43200
C1351       C  0.66164656  0.02855415  0.81538717     0.00400
C1352       C  0.63329089  0.03029622  0.81001260    -0.11500
C1353       C  0.62159204  0.04119715  0.84522733     0.02600
C1354       C  0.64072684  0.05509484  0.88493225     0.00300
C1355       C  0.67082666  0.05603155  0.88865064    -0.11400
C1356       C  0.68097286  0.04229392  0.85474291     0.02500
H1357       H  0.61932354  0.02164356  0.77874885     0.15500
H1358       H  0.68629444  0.06727984  0.91824017     0.15500
C1359       C  0.71169820  0.04334922  0.86028444     0.37100
C1360       C  0.58916646  0.03654365  0.84030586     0.37000
N1361       N  0.73645625  0.04437100  0.86436559    -0.43200
N1362       N  0.56307660  0.03254407  0.83624675    -0.43200
C1363       C  0.63274475  0.05246277  0.12277534     0.00400
C1364       C  0.60916387  0.02436784  0.14723276    -0.11500
C1365       C  0.61895886  0.01126411  0.18222743     0.02600
C1366       C  0.65295881  0.02624853  0.19295277     0.00300
C1367       C  0.67612194  0.05591966  0.17078900    -0.11400
C1368       C  0.66638622  0.06860749  0.13534794     0.02500
H1369       H  0.58313460  0.01248631  0.13860267     0.15500
H1370       H  0.70221553  0.06795407  0.17916107     0.15500
C1371       C  0.69140422  0.09764560  0.11124818     0.37100
C1372       C  0.59356077  0.48209819  0.20632181     0.37000
N1373       N  0.71132447  0.12077534  0.09154567    -0.43200
N1374       N  0.57347603  0.45879275  0.22557197    -0.43200
C1375       C  0.82570342  0.24550496  0.39826017     0.00400
C1376       C  0.80997264  0.23050987  0.35726824    -0.11500
C1377       C  0.80862796  0.24961178  0.32206281     0.02600
C1378       C  0.82223977  0.28414289  0.32821522     0.00300
C1379       C  0.83688672  0.29885485  0.36974993    -0.11400
C1380       C  0.83889940  0.27994040  0.40455180     0.02500
H1381       H  0.79963956  0.20404657  0.35226826     0.15500
H1382       H  0.84769743  0.32541452  0.37449130     0.15500
C1383       C  0.85422398  0.29633857  0.44667780     0.37100
C1384       C  0.79365148  0.23341655  0.27968014     0.37000
N1385       N  0.86648873  0.30937220  0.48049372    -0.43200
N1386       N  0.78178439  0.22056810  0.24560816    -0.43200
C1387       C  0.82495687  0.24741472  0.59935739     0.00400
C1388       C  0.85153916  0.28026880  0.60665703    -0.11500
C1389       C  0.85019185  0.30020753  0.64061383     0.02600
C1390       C  0.82188874  0.28748011  0.66830366     0.00300
C1391       C  0.79499978  0.25508330  0.66065114    -0.11400
C1392       C  0.79617521  0.23503803  0.62656199     0.02500
H1393       H  0.87361868  0.29045983  0.58590380     0.15500
H1394       H  0.77356896  0.24489885  0.68263296     0.15500
C1395       C  0.76813782  0.20136165  0.62229034     0.37100
C1396       C  0.87840783  0.33357984  0.64705962     0.37000
N1397       N  0.74552918  0.17440701  0.61925340    -0.43200
N1398       N  0.90095887  0.36030699  0.65252013    -0.43200
C1399       C  0.92087128  0.18489203  0.60175411     0.00400
C1400       C  0.93121502  0.16194009  0.60158900    -0.11500
C1401       C  0.95290456  0.16302585  0.63460887     0.02600
C1402       C  0.96485118  0.18740880  0.66893198     0.00300
C1403       C  0.95464371  0.21043561  0.66941022    -0.11400
C1404       C  0.93304296  0.20955710  0.63604678     0.02500
H1405       H  0.92221058  0.14290077  0.57556103     0.15500
H1406       H  0.96288281  0.22856211  0.69655111     0.15500
C1407       C  0.92229478  0.23296371  0.63928528     0.37100
C1408       C  0.96154406  0.13793884  0.63374052     0.37000
N1409       N  0.91352607  0.25160184  0.64180153    -0.43200
N1410       N  0.96842460  0.11780147  0.63326363    -0.43200
C1411       C  0.92312252  0.18714483  0.40101971     0.00400
C1412       C  0.93249595  0.21116390  0.36670460    -0.11500
C1413       C  0.95407134  0.21424673  0.33181672     0.02600
C1414       C  0.96719801  0.19355569  0.33123172     0.00300
C1415       C  0.95927888  0.17080919  0.36657212    -0.11400
C1416       C  0.93750592  0.16739016  0.40117491     0.02500
H1417       H  0.92219246  0.22690513  0.36635304     0.15500
H1418       H  0.96925673  0.15476330  0.36621907     0.15500
C1419       C  0.93083714  0.14370303  0.43670436     0.37100
C1420       C  0.96226893  0.23853115  0.29662795     0.37000
N1421       N  0.92559798  0.12473856  0.46515629    -0.43200
N1422       N  0.96908913  0.25800160  0.26832902    -0.43200
C1423       C  0.72134632  0.04210752  0.67143896     0.00400
C1424       C  0.70904464  0.05832821  0.64618261    -0.11500
C1425       C  0.72781004  0.08065319  0.61170631     0.02600
C1426       C  0.76024192  0.08778731  0.60230131     0.00300
C1427       C  0.77256057  0.07152400  0.62800145    -0.11400
C1428       C  0.75349643  0.04894623  0.66233865     0.02500
H1429       H  0.68433938  0.05317735  0.65320410     0.15500
H1430       H  0.79734752  0.07672281  0.62167117     0.15500
C1431       C  0.76790423  0.03405436  0.68874878     0.37100
C1432       C  0.71231066  0.09467100  0.58573199     0.37000
N1433       N  0.77931055  0.52264917  0.71042436    -0.43200
N1434       N  0.69964080  0.10569416  0.56502826    -0.43200
C1435       C  0.75877194  0.08325937  0.40132074     0.00400
C1436       C  0.72643555  0.07697786  0.39590891    -0.11500
C1437       C  0.70465220  0.05456625  0.36324110     0.02600
C1438       C  0.71487781  0.03764464  0.33477189     0.00300
C1439       C  0.74669423  0.04305011  0.34081112    -0.11400
C1440       C  0.76857102  0.06545742  0.37349417     0.02500
H1441       H  0.71792506  0.08963053  0.41733991     0.15500
H1442       H  0.75488829  0.03036389  0.31886386     0.15500
C1443       C  0.80115673  0.07022462  0.37634380     0.37100
C1444       C  0.67178226  0.04909178  0.36023507     0.37000
N1445       N  0.82725066  0.07396354  0.37848949    -0.43200
N1446       N  0.64520360  0.54458716  0.35805134    -0.43200
Fe1447     Fe  0.84078760  0.63383910  0.50037225     1.65800
Fe1448     Fe  0.87520332  0.71854942  0.50072504     1.73200
Fe1449     Fe  0.79078897  0.66588327  0.49894668     1.54400
O1450       O  0.77187953  0.62685217  0.45339398    -0.81100
O1451       O  0.85706906  0.73392926  0.55251616    -0.79400
O1452       O  0.80710756  0.60963800  0.44830380    -0.83600
O1453       O  0.80378223  0.60844096  0.54858784    -0.78500
O1454       O  0.80184198  0.69769128  0.44495604    -0.80300
O1455       O  0.90000159  0.70792175  0.54920070    -0.83000
C1456       C  0.78080602  0.61129998  0.56577620     0.97800
C1457       C  0.78067136  0.60807400  0.43617464     1.05200
O1458       O  0.83564986  0.67275917  0.49994860    -1.12000
O1459       O  0.89839173  0.70885743  0.44884333    -0.74400
O1460       O  0.87864530  0.65436190  0.45265680    -0.77900
O1461       O  0.77492902  0.63325429  0.55260307    -0.78600
C1462       C  0.89841914  0.68313327  0.43618028     0.96700
O1463       O  0.87509387  0.65269736  0.55227521    -0.76600
O1464       O  0.85577284  0.73564442  0.45284646    -0.81800
C1465       C  0.82827888  0.72709080  0.56349305     0.99300
C1466       C  0.82785449  0.72491788  0.43399408     1.05200
O1467       O  0.80233077  0.70373880  0.54469330    -0.77400
C1468       C  0.89701584  0.68167916  0.56584882     1.03500
N1469       N  0.59564016  0.59851143  0.07023718    -0.36100
N1470       N  0.57975697  0.63061898  0.99930423    -0.56600
N1471       N  0.60227511  0.60145771  0.93232782    -0.36100
N1472       N  0.62209911  0.57294680  0.00307633    -0.56600
C1473       C  0.58834763  0.61769157  0.09565304     0.27500
C1474       C  0.61089316  0.58768633  0.09762915     0.27500
C1475       C  0.59818629  0.62268887  0.90645267     0.27500
C1476       C  0.62210434  0.59390580  0.90910187     0.27500
C1477       C  0.56667425  0.63789461  0.03488142     0.36100
C1478       C  0.56892415  0.63814643  0.96151618     0.36100
C1479       C  0.62312866  0.55677593  0.04018091     0.36100
C1480       C  0.62658453  0.55820697  0.96678865     0.36100
C1481       C  0.59886420  0.61882478  0.13971623    -0.21300
C1482       C  0.61309718  0.59996873  0.14095740    -0.21300
C1483       C  0.61574324  0.62894528  0.86655338    -0.21300
C1484       C  0.63126612  0.61124314  0.86850541    -0.21300
C1485       C  0.54867498  0.65138778  0.01956189    -0.22400
C1486       C  0.54968726  0.65110093  0.97322320    -0.22400
C1487       C  0.62867323  0.53188560  0.02749434    -0.22400
C1488       C  0.63039773  0.53244047  0.98104199    -0.22400
C1489       C  0.57097214  0.63289228  0.08105381    -0.17800
C1490       C  0.62117685  0.56547936  0.08545922    -0.17800
C1491       C  0.62922704  0.56919343  0.92140829    -0.17700
C1492       C  0.57733733  0.63490072  0.91663876    -0.17700
H1493       H  0.59642861  0.63181460  0.16817082     0.15200
H1494       H  0.62353806  0.59551834  0.17063205     0.15200
H1495       H  0.61709366  0.64455956  0.83884758     0.15200
H1496       H  0.64671927  0.61040775  0.84230136     0.15200
H1497       H  0.53608287  0.66055250  0.03963581     0.13400
H1498       H  0.53800376  0.65995696  0.95081311     0.13400
H1499       H  0.63133135  0.51519364  0.04947807     0.13400
H1500       H  0.63435604  0.51593616  0.96035361     0.13400
H1501       H  0.58747476  0.59032666  0.03755342     0.26700
H1502       H  0.58854713  0.58928173  0.96099806     0.26700
N1503       N  0.87877702  0.00519145  0.93636655    -0.36100
N1504       N  0.89482809  0.55390511  0.00524635    -0.56600
N1505       N  0.86314462  0.00213558  0.07447761    -0.36100
N1506       N  0.84912065  0.95387705  0.00365610    -0.56600
C1507       C  0.90388170  0.53370164  0.91728356     0.27500
C1508       C  0.87838420  0.97929007  0.91612456     0.27500
C1509       C  0.88265944  0.52987390  0.09945875     0.27500
C1510       C  0.85833007  0.97564833  0.09866428     0.27500
C1511       C  0.89947081  0.57223768  0.96782276     0.36100
C1512       C  0.89143184  0.57024611  0.04014658     0.36100
C1513       C  0.83639731  0.93601782  0.96537929     0.36100
C1514       C  0.83062527  0.93416319  0.03808649     0.36100
C1515       C  0.91999227  0.52587910  0.88507151    -0.21300
C1516       C  0.90357425  0.99132523  0.88428676    -0.21300
C1517       C  0.88930210  0.52078998  0.14081670    -0.21300
C1518       C  0.87337514  0.98647082  0.14064654    -0.21300
C1519       C  0.89745188  0.59966937  0.97864651    -0.22400
C1520       C  0.89321073  0.59885783  0.02484021    -0.22400
C1521       C  0.80828379  0.90541065  0.97526823    -0.22400
C1522       C  0.80540775  0.90372196  0.02164468    -0.22400
C1523       C  0.90954313  0.56587265  0.92602675    -0.17800
C1524       C  0.85391467  0.94533172  0.92401770    -0.17800
C1525       C  0.84038211  0.94209758  0.08350987    -0.17700
C1526       C  0.89355124  0.56278579  0.08569399    -0.17700
H1527       H  0.94059645  0.54305582  0.86389257     0.15200
H1528       H  0.90968419  0.97691990  0.86244973     0.15200
H1529       H  0.90408983  0.53688798  0.16833915     0.15200
H1530       H  0.87348516  0.97150093  0.16819970     0.15200
H1531       H  0.90053230  0.61912644  0.95609268     0.13400
H1532       H  0.89273463  0.61769232  0.04512317     0.13400
H1533       H  0.79309415  0.88539368  0.95188588     0.13400
H1534       H  0.78732035  0.88224316  0.04071063     0.13400
H1535       H  0.86053255  0.00338434  0.95797446     0.26700
H1536       H  0.85240950  0.00131151  0.04340232     0.26700
N1537       N  0.50635423  0.87342280  0.06616065    -0.36100
N1538       N  0.55483722  0.88728857  0.99604617    -0.56600
N1539       N  0.50312217  0.87033921  0.92900317    -0.36100
N1540       N  0.95413643  0.85288255  0.99825822    -0.56600
C1541       C  0.53268988  0.88039223  0.09248663     0.27500
C1542       C  0.97894975  0.85948590  0.09279523     0.27500
C1543       C  0.52779889  0.87330053  0.90291318     0.27500
C1544       C  0.97515197  0.85495980  0.90383839     0.27500
C1545       C  0.57584807  0.89888673  0.03174338     0.36100
C1546       C  0.57393217  0.89864987  0.95841993     0.36100
C1547       C  0.93846292  0.85487169  0.03506851     0.36100
C1548       C  0.93717649  0.85355809  0.96202758     0.36100
C1549       C  0.52163244  0.87134821  0.13666447    -0.21300
C1550       C  0.98789261  0.85678583  0.13635985    -0.21300
C1551       C  0.51539155  0.85931999  0.86078943    -0.21300
C1552       C  0.98200889  0.84757166  0.86143375    -0.21300
C1553       C  0.60833165  0.91514243  0.01629632    -0.22400
C1554       C  0.60713659  0.91620636  0.97027265    -0.22400
C1555       C  0.91144017  0.85679608  0.02202454    -0.22400
C1556       C  0.91048614  0.85551825  0.97573186    -0.22400
C1557       C  0.56645880  0.89661470  0.07799500    -0.17800
C1558       C  0.94703716  0.85291794  0.08024915    -0.17800
C1559       C  0.94472853  0.85105565  0.91669540    -0.17700
C1560       C  0.56178215  0.89327393  0.91354360    -0.17700
H1561       H  0.53572885  0.87525413  0.16701826     0.15200
H1562       H  0.97215073  0.84694976  0.16583210     0.15200
H1563       H  0.52931526  0.85901630  0.83201749     0.15200
H1564       H  0.96503356  0.83619362  0.83333393     0.15200
H1565       H  0.63093582  0.92602337  0.03586566     0.13400
H1566       H  0.62862285  0.92861220  0.94859917     0.13400
H1567       H  0.89404788  0.85863270  0.04357173     0.13400
H1568       H  0.89229535  0.85579991  0.95425206     0.13400
H1569       H  0.50775981  0.88180415  0.03348488     0.26700
H1570       H  0.50645218  0.88335900  0.95880748     0.26700
C1571       C  0.51788904  0.69966212  0.29337743     0.02800
C1572       C  0.98466393  0.69125916  0.29123968     0.02800
C1573       C  0.96577258  0.67506019  0.25268586    -0.17700
C1574       C  0.97745371  0.66293670  0.21859106     0.02800
C1575       C  0.51108531  0.67134050  0.22103340     0.02800
C1576       C  0.53089864  0.69049060  0.25760177    -0.17700
H1577       H  0.55661504  0.69747510  0.25895673     0.04800
H1578       H  0.94078246  0.67009345  0.25077441     0.04800
C1579       C  0.82471529  0.80593746  0.29031296     0.02800
C1580       C  0.80952034  0.82481622  0.29153801     0.02800
C1581       C  0.81389310  0.84567721  0.25505469    -0.17700
C1582       C  0.83303071  0.84839624  0.21710954     0.02800
C1583       C  0.85016019  0.83116453  0.21768105     0.02800
C1584       C  0.84516681  0.80973038  0.25367653    -0.17700
H1585       H  0.85821761  0.79656324  0.25384182     0.04800
H1586       H  0.80217483  0.86011449  0.25635712     0.04800
C1587       C  0.98386449  0.68553084  0.70717786     0.02800
C1588       C  0.51825826  0.69821058  0.70470687     0.02800
C1589       C  0.53364111  0.69103009  0.73960344    -0.17700
C1590       C  0.51550067  0.67099596  0.77657067     0.02800
C1591       C  0.98097838  0.65844298  0.77919587     0.02800
C1592       C  0.96596105  0.66670884  0.74499066    -0.17700
H1593       H  0.93965518  0.65730204  0.74686699     0.04800
H1594       H  0.55994987  0.70048345  0.73737330     0.04800
C1595       C  0.80268635  0.82069798  0.71180485     0.02800
C1596       C  0.82248187  0.80664603  0.70864574     0.02800
C1597       C  0.84419253  0.81154897  0.74404937    -0.17700
C1598       C  0.84859551  0.83223865  0.78077828     0.02800
C1599       C  0.82974015  0.84756693  0.78344982     0.02800
C1600       C  0.80583101  0.84009424  0.74971051    -0.17700
H1601       H  0.79062039  0.85091024  0.75163875     0.04800
H1602       H  0.85903442  0.80030331  0.74196413     0.04800
C1603       C  0.68578365  0.98442706  0.70563402     0.02800
C1604       C  0.69972337  0.51915901  0.70808094     0.02800
C1605       C  0.69184491  0.53263459  0.74492666    -0.17700
C1606       C  0.66977317  0.51214941  0.77883065     0.02800
C1607       C  0.65628436  0.97753069  0.77649562     0.02800
C1608       C  0.66434502  0.96415573  0.73998886    -0.17700
H1609       H  0.65257659  0.93732583  0.73717976     0.04800
H1610       H  0.70235689  0.55932282  0.74661653     0.04800
C1611       C  0.68692616  0.98320668  0.29122147     0.02800
C1612       C  0.69401834  0.51610576  0.29611934     0.02800
C1613       C  0.68321408  0.52939995  0.26270343    -0.17700
C1614       C  0.66527593  0.51064214  0.22455758     0.02800
C1615       C  0.66083958  0.97851513  0.21762710     0.02800
C1616       C  0.67236508  0.96581692  0.25109885    -0.17700
H1617       H  0.66867764  0.94128039  0.24725524     0.04800
H1618       H  0.68838648  0.55453475  0.26674420     0.04800
Fe1619     Fe  0.63519138  0.84123120  0.50004957     1.65800
Fe1620     Fe  0.71927370  0.87596803  0.50003328     1.73200
Fe1621     Fe  0.66713273  0.79082053  0.49826343     1.54400
O1622       O  0.62886621  0.77170497  0.54527582    -0.81100
O1623       O  0.73589715  0.85837711  0.44961714    -0.79400
O1624       O  0.61176230  0.80723856  0.55198739    -0.83600
O1625       O  0.60947786  0.80436711  0.45223034    -0.78500
O1626       O  0.70006247  0.80152559  0.55108454    -0.80300
O1627       O  0.70895467  0.90018776  0.45043361    -0.83000
C1628       C  0.61165977  0.78134260  0.43370365     0.97800
C1629       C  0.61022806  0.78046083  0.56310381     1.05200
O1630       O  0.67387264  0.83599605  0.49949933    -1.12000
O1631       O  0.70937628  0.89946819  0.55098906    -0.74400
O1632       O  0.65517901  0.87912344  0.54764580    -0.77900
O1633       O  0.63332061  0.77474199  0.44554687    -0.78600
C1634       C  0.68372674  0.89903651  0.56401575     0.96700
O1635       O  0.65397556  0.87566011  0.44817968    -0.76600
O1636       O  0.73518851  0.85656517  0.54911862    -0.81800
C1637       C  0.72898855  0.83006104  0.43561162     0.99300
C1638       C  0.72576658  0.82800768  0.56527323     1.05200
O1639       O  0.70433158  0.80316875  0.45079492    -0.77400
C1640       C  0.68279592  0.89712804  0.43390800     1.03500
C1641       C  0.68571594  0.92025376  0.39758976     0.00400
C1642       C  0.66300528  0.93073355  0.39741330    -0.11500
C1643       C  0.66405425  0.95217319  0.36402213     0.02600
C1644       C  0.68841148  0.96398789  0.32989417     0.00300
C1645       C  0.71117198  0.95357089  0.32968239    -0.11400
C1646       C  0.71008691  0.93191708  0.36319852     0.02500
H1647       H  0.64405392  0.92187807  0.42334390     0.15500
H1648       H  0.72922858  0.96169881  0.30263839     0.15500
C1649       C  0.73278149  0.92040313  0.35974832     0.37100
C1650       C  0.63848599  0.96001117  0.36389958     0.37000
N1651       N  0.75082618  0.91101267  0.35671268    -0.43200
N1652       N  0.61774976  0.96593806  0.36365617    -0.43200
C1653       C  0.68713888  0.92320081  0.59903382     0.00400
C1654       C  0.66975321  0.93952691  0.59338193    -0.11500
C1655       C  0.67084541  0.96139732  0.62641705     0.02600
C1656       C  0.68963112  0.96732058  0.66609558     0.00300
C1657       C  0.70750185  0.95150839  0.67146142    -0.11400
C1658       C  0.70665455  0.92981491  0.63826448     0.02500
H1659       H  0.65478599  0.93473653  0.56333114     0.15500
H1660       H  0.72106582  0.95509057  0.70258610     0.15500
C1661       C  0.72399589  0.91281213  0.64689544     0.37100
C1662       C  0.65076726  0.97574791  0.62019975     0.37000
N1663       N  0.73777302  0.89908904  0.65399181    -0.43200
N1664       N  0.63330711  0.48622273  0.61581321    -0.43200
C1665       C  0.78265460  0.82033438  0.67318366     0.00400
C1666       C  0.79848495  0.84530823  0.64052086    -0.11500
C1667       C  0.78053689  0.84838177  0.60542748     0.02600
C1668       C  0.74584608  0.82559360  0.60198855     0.00300
C1669       C  0.73014723  0.80013481  0.63448035    -0.11400
C1670       C  0.74815375  0.79774618  0.67034250     0.02500
H1671       H  0.82499103  0.86297644  0.64309475     0.15500
H1672       H  0.70359233  0.78264576  0.63264297     0.15500
C1673       C  0.73066116  0.77252743  0.70438790     0.37100
C1674       C  0.79862742  0.87513412  0.57346112     0.37000
N1675       N  0.71653954  0.75236096  0.73172982    -0.43200
N1676       N  0.81313895  0.89674746  0.54810239    -0.43200
C1677       C  0.53907161  0.71876334  0.66615272     0.00400
C1678       C  0.54951148  0.70434115  0.63409315    -0.11500
C1679       C  0.57229951  0.72367844  0.60017331     0.02600
C1680       C  0.58548809  0.75852667  0.59809126     0.00300
C1681       C  0.57428684  0.77266095  0.62989001    -0.11400
C1682       C  0.55150358  0.75319291  0.66376815     0.02500
H1683       H  0.54008984  0.67785824  0.63597596     0.15500
H1684       H  0.58393282  0.79920340  0.62901762     0.15500
C1685       C  0.54223242  0.76927172  0.69693336     0.37100
C1686       C  0.58101089  0.70675219  0.56758935     0.37000
N1687       N  0.53479489  0.78206680  0.72366832    -0.43200
N1688       N  0.58788322  0.69307109  0.54151954    -0.43200
C1689       C  0.75065175  0.82846193  0.40020502     0.00400
C1690       C  0.73850812  0.79912923  0.37444228    -0.11500
C1691       C  0.75747582  0.79705487  0.33963074     0.02600
C1692       C  0.78959018  0.82434718  0.33061045     0.00300
C1693       C  0.80211574  0.85333047  0.35667691    -0.11400
C1694       C  0.78321533  0.85572596  0.39108327     0.02500
H1695       H  0.71367451  0.77804075  0.38047117     0.15500
H1696       H  0.82675425  0.87446943  0.34955676     0.15500
C1697       C  0.79829802  0.88662236  0.41618299     0.37100
C1698       C  0.74271653  0.76747526  0.31186593     0.37000
N1699       N  0.81051399  0.91153007  0.43593844    -0.43200
N1700       N  0.73068384  0.74384264  0.28940363    -0.43200
C1701       C  0.58733826  0.76077183  0.39767089     0.00400
C1702       C  0.57933081  0.72780640  0.39090472    -0.11500
C1703       C  0.55600874  0.70719800  0.35825730     0.02600
C1704       C  0.54018261  0.71941752  0.33138041     0.00300
C1705       C  0.54777301  0.75208791  0.33823404    -0.11400
C1706       C  0.57110184  0.77280341  0.37078517     0.02500
H1707       H  0.59102217  0.71788933  0.41155489     0.15500
H1708       H  0.53608412  0.76177062  0.31709811     0.15500
C1709       C  0.57876162  0.80667403  0.37424664     0.37100
C1710       C  0.54822056  0.67336622  0.35337528     0.37000
N1711       N  0.58486099  0.83380832  0.37684944    -0.43200
N1712       N  0.04183015  0.64621858  0.34927142    -0.43200
C1713       C  0.92023472  0.84549930  0.88090751     0.00400
C1714       C  0.92765808  0.87149963  0.85075303    -0.11500
C1715       C  0.90470489  0.86774514  0.81783862     0.02600
C1716       C  0.87375935  0.83758378  0.81494144     0.00300
C1717       C  0.86666118  0.81134251  0.84434452    -0.11400
C1718       C  0.88945195  0.81516009  0.87744575     0.02500
H1719       H  0.95134663  0.89482593  0.85323119     0.15500
H1720       H  0.84297932  0.78800680  0.84182791     0.15500
C1721       C  0.88070639  0.78772405  0.90762144     0.37100
C1722       C  0.91353751  0.89483395  0.78696574     0.37000
N1723       N  0.87361396  0.76579572  0.93197707    -0.43200
N1724       N  0.92060025  0.91649485  0.76212076    -0.43200
C1725       C  0.58489185  0.91265873  0.87589410     0.00400
C1726       C  0.61205957  0.90956887  0.86578424    -0.11500
C1727       C  0.63606956  0.93093214  0.83438809     0.02600
C1728       C  0.63153850  0.95393144  0.80984819     0.00300
C1729       C  0.60209313  0.95349569  0.81586150    -0.11400
C1730       C  0.58022493  0.93521995  0.85059188     0.02500
H1731       H  0.61535646  0.89163422  0.88407929     0.15500
H1732       H  0.59622406  0.96782712  0.79382265     0.15500
C1733       C  0.55430904  0.94158728  0.86108909     0.37100
C1734       C  0.66532360  0.92920898  0.82873015     0.37000
N1735       N  0.53385871  0.94704270  0.86980640    -0.43200
N1736       N  0.68872264  0.92773285  0.82417250    -0.43200
C1737       C  0.59365207  0.91568338  0.11214308     0.00400
C1738       C  0.61642681  0.94986272  0.10480018    -0.11500
C1739       C  0.64268909  0.96850534  0.13463310     0.02600
C1740       C  0.64137419  0.95620122  0.17847787     0.00300
C1741       C  0.61963566  0.92156039  0.18519971    -0.11400
C1742       C  0.59838787  0.90102140  0.15063003     0.02500
H1743       H  0.61510151  0.96147476  0.07402672     0.15500
H1744       H  0.61903060  0.91013768  0.21715471     0.15500
C1745       C  0.58275945  0.86534222  0.15490671     0.37100
C1746       C  0.67188145  0.49764255  0.11713389     0.37000
N1747       N  0.57041636  0.83678920  0.15848910    -0.43200
N1748       N  0.69555750  0.52042918  0.10227250    -0.43200
C1749       C  0.87500370  0.83616281  0.18317254     0.00400
C1750       C  0.86568424  0.81372709  0.14706423    -0.11500
C1751       C  0.88907314  0.81756206  0.11471790     0.02600
C1752       C  0.92193231  0.84567305  0.11653208     0.00300
C1753       C  0.93100423  0.86771315  0.15329366    -0.11400
C1754       C  0.90858986  0.86169721  0.18800554     0.02500
H1755       H  0.84028454  0.79286377  0.14469128     0.15500
H1756       H  0.95596249  0.88937857  0.15543053     0.15500
C1757       C  0.92033548  0.88281640  0.22762601     0.37100
C1758       C  0.87880050  0.79223048  0.08030118     0.37000
N1759       N  0.92973081  0.89982888  0.25923684    -0.43200
N1760       N  0.87053667  0.77201431  0.05260252    -0.43200
C1761       C  0.95347363  0.64003982  0.18301895     0.00400
C1762       C  0.96429520  0.64225030  0.13816974    -0.11500
C1763       C  0.94604466  0.61610858  0.10780722     0.02600
C1764       C  0.91307460  0.59106973  0.11777509     0.00300
C1765       C  0.90027218  0.59105940  0.16041594    -0.11400
C1766       C  0.92074706  0.61358972  0.19392674     0.02500
H1767       H  0.98853081  0.66250997  0.12799978     0.15500
H1768       H  0.87524395  0.57129468  0.16890399     0.15500
C1769       C  0.90840177  0.60645052  0.23974676     0.37100
C1770       C  0.96336007  0.61152293  0.07128112     0.37000
N1771       N  0.89849605  0.60050984  0.27643735    -0.43200
N1772       N  0.97631777  0.60542638  0.04322572    -0.43200
C1773       C  0.96010253  0.63618158  0.81686320     0.00400
C1774       C  0.96982518  0.64638761  0.86163287    -0.11500
C1775       C  0.95354473  0.62482356  0.89795893     0.02600
C1776       C  0.92583532  0.59223628  0.89002988     0.00300
C1777       C  0.91442345  0.58329936  0.84527671    -0.11400
C1778       C  0.93142980  0.60449774  0.80892018     0.02500
H1779       H  0.99100720  0.67117961  0.86819150     0.18700
H1780       H  0.89274259  0.55888160  0.83845752     0.15500
C1781       C  0.91966076  0.59231524  0.76378934     0.37100
C1782       C  0.96650743  0.63753645  0.94234437     0.37000
N1783       N  0.90998874  0.58253271  0.72770188    -0.43200
N1784       N  0.97712441  0.64954889  0.97720989    -0.43200
C1785       C  0.84740065  0.91949948  0.88880864     0.00400
C1786       C  0.84418739  0.92605847  0.84340181    -0.11500
C1787       C  0.83967442  0.90370797  0.80889067     0.02600
C1788       C  0.83544610  0.87244622  0.81952932     0.00300
C1789       C  0.83739874  0.86531871  0.86513712    -0.11400
C1790       C  0.84497465  0.88897570  0.89919347     0.02500
H1791       H  0.84613368  0.94931714  0.83460195     0.15500
H1792       H  0.83351028  0.84133315  0.87434458     0.15500
C1793       C  0.85065138  0.88138755  0.94429851     0.37100
C1794       C  0.84116104  0.91438861  0.76275022     0.37000
N1795       N  0.85442235  0.87548086  0.98095383    -0.43200
N1796       N  0.84246829  0.92300996  0.72579847    -0.43200
C1797       C  0.83428288  0.86956877  0.17843131     0.00400
C1798       C  0.86487482  0.89519197  0.16161815    -0.11500
C1799       C  0.86676725  0.91647130  0.12751151     0.02600
C1800       C  0.83790650  0.91559439  0.11362365     0.00300
C1801       C  0.80710290  0.89016289  0.13002204    -0.11400
C1802       C  0.80501140  0.86637096  0.16052103     0.02500
H1803       H  0.88766327  0.89990489  0.17593895     0.15500
H1804       H  0.78467753  0.88892371  0.11917584     0.15500
C1805       C  0.77251157  0.83887166  0.17276102     0.37100
C1806       C  0.89886598  0.93971848  0.10815911     0.37000
N1807       N  0.74650311  0.81673514  0.18248292    -0.43200
N1808       N  0.92452636  0.95822201  0.09253680    -0.43200
C1809       C  0.55589503  0.64335493  0.11680268     0.00400
C1810       C  0.53001924  0.61867487  0.14338699    -0.11500
C1811       C  0.51585749  0.62718350  0.17837318     0.02600
C1812       C  0.52686262  0.66096216  0.18644887     0.00300
C1813       C  0.55330567  0.68568300  0.16058946    -0.11400
C1814       C  0.56796017  0.67717666  0.12625812     0.02500
H1815       H  0.52108280  0.59264243  0.13696771     0.15500
H1816       H  0.56229760  0.71172805  0.16700665     0.15500
C1817       C  0.59571473  0.70348673  0.10168661     0.37100
C1818       C  0.99015192  0.60090915  0.20561295     0.37000
N1819       N  0.61799257  0.72447764  0.08190405    -0.43200
N1820       N  0.96946822  0.57991324  0.22744628    -0.43200
C1821       C  0.53301875  0.66248293  0.81091242     0.00400
C1822       C  0.52358564  0.62908002  0.81659637    -0.11500
C1823       C  0.53824618  0.61991828  0.85004235     0.02600
C1824       C  0.56332498  0.64443610  0.87825544     0.00300
C1825       C  0.57345924  0.67797918  0.87171996    -0.11400
C1826       C  0.55833883  0.68707524  0.83879030     0.02500
H1827       H  0.00413480  0.60999786  0.79545970     0.15500
H1828       H  0.59243739  0.69693586  0.89349489     0.15500
C1829       C  0.56776494  0.72150653  0.83606814     0.37100
C1830       C  0.52607366  0.58498473  0.85611464     0.37000
N1831       N  0.57510900  0.74905735  0.83407764    -0.43200
N1832       N  0.01609133  0.55693364  0.86104243    -0.43200
C1833       C  0.66081245  0.52799302  0.81521833     0.00400
C1834       C  0.63246282  0.52974292  0.80981062    -0.11500
C1835       C  0.62074441  0.54063024  0.84501871     0.02600
C1836       C  0.63984800  0.55448791  0.88475598     0.00300
C1837       C  0.66992991  0.55539641  0.88851804    -0.11400
C1838       C  0.68009378  0.54167523  0.85461948     0.02500
H1839       H  0.61851593  0.52110485  0.77852805     0.15500
H1840       H  0.68537292  0.56661344  0.91813633     0.15500
C1841       C  0.71079271  0.54268706  0.86022468     0.37100
C1842       C  0.58833112  0.53599779  0.84005860     0.37000
N1843       N  0.73552749  0.54367039  0.86436804    -0.43200
N1844       N  0.56224416  0.53199775  0.83595685    -0.43200
C1845       C  0.63226372  0.55209250  0.12253404     0.00400
C1846       C  0.60874725  0.52405750  0.14714112    -0.11500
C1847       C  0.61863417  0.51104939  0.18214068     0.02600
C1848       C  0.65265946  0.52608472  0.19272880     0.00300
C1849       C  0.67576284  0.55570162  0.17041714    -0.11400
C1850       C  0.66593843  0.56828004  0.13494919     0.02500
H1851       H  0.58269535  0.51215474  0.13863220     0.15500
H1852       H  0.70187625  0.56776390  0.17868495     0.15500
C1853       C  0.69090223  0.59723669  0.11065814     0.37100
C1854       C  0.59382365  0.98224372  0.20623113     0.37000
N1855       N  0.71079276  0.62029493  0.09081015    -0.43200
N1856       N  0.57370619  0.95887142  0.22533479    -0.43200
C1857       C  0.82549956  0.74544441  0.39826933     0.00400
C1858       C  0.80974857  0.73048459  0.35727250    -0.11500
C1859       C  0.80852116  0.74963908  0.32205243     0.02600
C1860       C  0.82226922  0.78418888  0.32819223     0.00300
C1861       C  0.83693484  0.79887815  0.36972656    -0.11400
C1862       C  0.83883746  0.77991090  0.40454708     0.02500
H1863       H  0.79931052  0.70400342  0.35227590     0.15500
H1864       H  0.84782233  0.82545083  0.37446041     0.15500
C1865       C  0.85419563  0.79629029  0.44667177     0.37100
C1866       C  0.79348574  0.73347181  0.27968100     0.37000
N1867       N  0.86649059  0.80930269  0.48048635    -0.43200
N1868       N  0.78154848  0.72065103  0.24562340    -0.43200
C1869       C  0.82509853  0.74762721  0.59919150     0.00400
C1870       C  0.85235113  0.77992592  0.60765821    -0.11500
C1871       C  0.85123343  0.79998259  0.64161739     0.02600
C1872       C  0.82249768  0.78792818  0.66824663     0.00300
C1873       C  0.79488205  0.75619506  0.65925178    -0.11400
C1874       C  0.79584551  0.73602303  0.62514222     0.02500
H1875       H  0.87477807  0.78962381  0.58776826     0.15500
H1876       H  0.77293691  0.74662922  0.68012995     0.15500
C1877       C  0.76695187  0.70301959  0.61941522     0.37100
C1878       C  0.88001959  0.83288379  0.64886421     0.37000
N1879       N  0.74366608  0.67660637  0.61513072    -0.43200
N1880       N  0.90301473  0.85924686  0.65490380    -0.43200
C1881       C  0.92061506  0.68461318  0.60154513     0.00400
C1882       C  0.92971516  0.66069795  0.60252057    -0.11500
C1883       C  0.95143436  0.66174401  0.63543493     0.02600
C1884       C  0.96471075  0.68707890  0.66848134     0.00300
C1885       C  0.95585714  0.71114188  0.66776486    -0.11400
C1886       C  0.93416308  0.71025805  0.63454540     0.02500
H1887       H  0.91972617  0.64093515  0.57746274     0.15500
H1888       H  0.96518591  0.73008486  0.69392356     0.15500
C1889       C  0.92478102  0.73477078  0.63667759     0.37100
C1890       C  0.95885607  0.63576706  0.63570428     0.37000
N1891       N  0.91710811  0.75430015  0.63833529    -0.43200
N1892       N  0.96476335  0.61492364  0.63612522    -0.43200
C1893       C  0.92274228  0.68693451  0.40096850     0.00400
C1894       C  0.93193771  0.71083442  0.36653033    -0.11500
C1895       C  0.95357990  0.71401862  0.33169282     0.02600
C1896       C  0.96693300  0.69352626  0.33124808     0.00300
C1897       C  0.95916711  0.67088497  0.36668827    -0.11400
C1898       C  0.93734813  0.66738609  0.40127086     0.02500
H1899       H  0.92147115  0.72643032  0.36607137     0.15500
H1900       H  0.96931730  0.65498949  0.36644454     0.15500
C1901       C  0.93090120  0.64386743  0.43694767     0.37100
C1902       C  0.96164210  0.73823787  0.29645504     0.37000
N1903       N  0.92586259  0.62504284  0.46551531    -0.43200
N1904       N  0.96834356  0.75767285  0.26814271    -0.43200
C1905       C  0.72081582  0.54201896  0.67138602     0.00400
C1906       C  0.70849459  0.55818536  0.64603248    -0.11500
C1907       C  0.72732707  0.58060737  0.61165877     0.02600
C1908       C  0.75978967  0.58780065  0.60234992     0.00300
C1909       C  0.77213276  0.57161061  0.62816166    -0.11400
C1910       C  0.75304819  0.54901766  0.66248158     0.02500
H1911       H  0.68374051  0.55294182  0.65292146     0.15500
H1912       H  0.79696507  0.57689975  0.62194933     0.15500
C1913       C  0.76752604  0.53429930  0.68911462     0.37100
C1914       C  0.71188938  0.59469446  0.58569919     0.37000
N1915       N  0.77963151  0.02225037  0.70985109    -0.43200
N1916       N  0.69926589  0.60577242  0.56501014    -0.43200
C1917       C  0.75856154  0.58324046  0.40115114     0.00400
C1918       C  0.72617260  0.57683351  0.39581252    -0.11500
C1919       C  0.70443687  0.55446114  0.36306218     0.02600
C1920       C  0.71475295  0.53768240  0.33446083     0.00300
C1921       C  0.74663808  0.54324479  0.34038173    -0.11400
C1922       C  0.76848152  0.56564234  0.37310256     0.02500
H1923       H  0.71758479  0.58935832  0.41736199     0.15500
H1924       H  0.75490995  0.53069107  0.31830814     0.15500
C1925       C  0.80116488  0.57062895  0.37573009     0.37100
C1926       C  0.67152235  0.54887686  0.36010596     0.37000
N1927       N  0.82733852  0.57454476  0.37766544    -0.43200
N1928       N  0.64549801  0.04488599  0.35814798    -0.43200
loop_ 
_geom_bond_atom_site_label_1 
_geom_bond_atom_site_label_2 
_geom_bond_distance 
_geom_bond_site_symmetry_2 
_ccdc_geom_bond_type 
Fe1          O17   2.067       .  S
Fe1           O7   2.083       .  S
Fe1          O14   2.079       .  S
Fe1           O6   2.075       .  S
Fe1          O12   1.979       .  S
Fe2           O5   2.068       .  S
Fe2           O9   2.079       .  S
Fe2          O13   2.077       .  S
Fe2          O18   2.074       .  S
Fe2          O12   1.980       .  S
Fe3          O21   2.069       .  S
Fe3           O8   2.064       .  S
Fe3          O15   2.059       .  S
Fe3           O4   2.064       .  S
Fe3          O12   1.979       .  S
O4           C11   1.268       .  A
O5           C19   1.270       .  A
O6           C11   1.270       .  A
O7           C10   1.273       .  A
O8           C20   1.269       .  A
O9           C22   1.271       .  A
C10          O15   1.269       .  A
C10         C462   1.494       .  S
C11         C471   1.499       .  S
O13          C16   1.272       .  A
O14          C16   1.273       .  A
C16         C447   1.494       .  S
O17          C22   1.270       .  A
O18          C20   1.271       .  A
C19          O21   1.268       .  A
C19         C423   1.492       .  S
C20         C411   1.479       .  S
C22         C435   1.492       .  S
N23          C28   1.355       .  A
N23          C27   1.354       .  A
N23          H55   1.037       .  S
N24          C31   1.355   1_556  A
N24          C32   1.355       .  A
N25          C30   1.356       .  A
N25          C29   1.355       .  A
N25          H56   1.040       .  S
N26          C33   1.354       .  A
N26          C34   1.355   1_554  A
C27          C35   1.387       .  A
C27          C43   1.417       .  A
C28          C44   1.417       .  A
C28          C36   1.387       .  A
C29          C37   1.384       .  A
C29          C46   1.416       .  A
C30          C45   1.424       .  A
C30          C38   1.389       .  A
C31          C43   1.419       .  A
C31          C39   1.385       .  A
C32          C46   1.417       .  A
C32          C40   1.385       .  A
C33          C41   1.385       .  A
C33          C44   1.418       .  A
C34          C42   1.387       .  A
C34          C45   1.422       .  A
C35          C36   1.373       .  A
C35          H47   1.082       .  S
C36          H48   1.082       .  S
C37          C38   1.377       .  A
C37          H49   1.082       .  S
C38          H50   1.082       .  S
C39          C40   1.372   1_554  A
C39          H51   1.082       .  S
C40          H52   1.081       .  S
C41          C42   1.376   1_554  A
C41          H53   1.080       .  S
C42          H54   1.082       .  S
C43         C363   1.499       .  S
C44         C399   1.495       .  S
C45         C390   1.510       .  S
C46         C378   1.501       .  S
N57          C62   1.352       .  A
N57         C543   1.352       .  A
N57          H89   1.043       .  S
N58          C65   1.351   1_554  A
N58          C66   1.348       .  A
N59          C64   1.353       .  A
N59         C545   1.352       .  A
N59          H90   1.042       .  S
N60          C67   1.349   1_554  A
N60          C68   1.347       .  A
C61         N539   1.352       .  A
C61          C69   1.388       .  A
C61          C77   1.420       .  A
C62          C78   1.418       .  A
C62          C70   1.387       .  A
C63         N541   1.352       .  A
C63          C71   1.388       .  A
C63          C80   1.415       .  A
C64          C79   1.418       .  A
C64          C72   1.388       .  A
C65          C77   1.414       .  A
C65          C73   1.385       .  A
C66          C80   1.410       .  A
C66          C74   1.385       .  A
C67          C75   1.386       .  A
C67          C78   1.414       .  A
C68          C76   1.385       .  A
C68          C79   1.406       .  A
C69         C552   1.381   1_545  A
C69          H81   1.082       .  S
C70         C551   1.381       .  A
C70          H82   1.082       .  S
C71         C554   1.375   1_545  A
C71          H83   1.081       .  S
C72         C553   1.375       .  A
C72          H84   1.082       .  S
C73          C74   1.379   1_556  A
C73          H85   1.082       .  S
C74          H86   1.082       .  S
C75          C76   1.377   1_556  A
C75          H87   1.082       .  S
C76          H88   1.080       .  S
C77         C330   1.507       .  S
C78         C339   1.506       .  S
C79         C354   1.491       .  S
C80         C318   1.494       .  S
N91          C95   1.358       .  A
N91        C1060   1.358   1_455  A
N91         H123   1.033       .  S
N92          C99   1.354   1_556  A
N92         C100   1.355       .  A
N93          C97   1.348       .  A
N93        C1062   1.352   1_455  A
N93         H124   1.037       .  S
N94         C101   1.350   1_556  A
N94         C102   1.352       .  A
C95         C103   1.390       .  A
C95         C111   1.431       .  A
C96        N1055   1.358       .  A
C96         C112   1.426       .  A
C96         C104   1.384       .  A
C97         C105   1.387       .  A
C97         C114   1.409       .  A
C98        N1057   1.352       .  A
C98         C113   1.409       .  A
C98         C106   1.386       .  A
C99         C111   1.426       .  A
C99         C107   1.389       .  A
C100        C114   1.416       .  A
C100        C108   1.384       .  A
C101        C109   1.388       .  A
C101        C112   1.415       .  A
C102        C110   1.380       .  A
C102        C113   1.409       .  A
C103       C1068   1.370   1_455  A
C103        H115   1.076       .  S
C104       C1067   1.370       .  A
C104        H116   1.081       .  S
C105       C1070   1.376   1_455  A
C105        H117   1.082       .  S
C106       C1069   1.376       .  A
C106        H118   1.082       .  S
C107        C108   1.365   1_554  A
C107        H119   1.081       .  S
C108        H120   1.080       .  S
C109        C110   1.370   1_554  A
C109        H121   1.082       .  S
C110        H122   1.079       .  S
C111        C291   1.507       .  S
C112        C306   1.503       .  S
C113        C267   1.490       .  S
C114        C279   1.492       .  S
C125        C258   1.486       .  S
C125        C130   1.403       .  A
C125       C1090   1.411   1_455  A
C126        C450   1.489       .  S
C126        C127   1.402       .  A
C126       C1089   1.411       .  A
C127        C128   1.409       .  A
C127        H132   1.083       .  S
C128        C315   1.507       .  S
C128       C1093   1.430       .  A
C129        C366   1.495       .  S
C129        C130   1.405       .  A
C129       C1092   1.430   1_455  A
C130        H131   1.085       .  S
C133        C414   1.484       .  S
C133        C134   1.413       .  A
C133        C138   1.402       .  A
C134        C246   1.486       .  S
C134        C135   1.402       .  A
C135        C136   1.407       .  A
C135        H140   1.084       .  S
C136        C351   1.501       .  S
C136        C137   1.422       .  A
C137        C303   1.481       .  S
C137        C138   1.401       .  A
C138        H139   1.085       .  S
C141        C438   1.489       .  S
C141        C146   1.404       .  A
C141       C1106   1.415       .  A
C142        C231   1.488       .  S
C142        C143   1.406       .  A
C142       C1105   1.415   1_455  A
C143        C144   1.405       .  A
C143        H148   1.084       .  S
C144        C375   1.497       .  S
C144       C1109   1.421   1_455  A
C145        C327   1.494       .  S
C145        C146   1.408       .  A
C145       C1108   1.421       .  A
C146        H147   1.084       .  S
C149        C219   1.481       .  S
C149        C150   1.411       .  A
C149        C154   1.404       .  A
C150        C426   1.485       .  S
C150        C151   1.400       .  A
C151        C152   1.400       .  A
C151        H156   1.085       .  S
C152        C270   1.481       .  S
C152        C153   1.420       .  A
C153        C342   1.501       .  S
C153        C154   1.409       .  A
C154        H155   1.084       .  S
C157        C210   1.485       .  S
C157        C162   1.400       .  A
C157        C640   1.415       .  A
C158        C459   1.486       .  S
C158        C159   1.408       .  A
C158        C639   1.415   1_545  A
C159        C160   1.404       .  A
C159        H164   1.084       .  S
C160        C387   1.495       .  S
C160        C643   1.422   1_545  A
C161        C282   1.490       .  S
C161        C162   1.402       .  A
C161        C642   1.423       .  A
C162        H163   1.085       .  S
C165        C198   1.486       .  S
C165        C170   1.400       .  A
C165        C648   1.411       .  A
C166        C474   1.494       .  S
C166        C167   1.406       .  A
C166        C647   1.411   1_545  A
C167        C168   1.409       .  A
C167        H172   1.084       .  S
C168        C402   1.497       .  S
C168        C651   1.432   1_545  A
C169        C294   1.508       .  S
C169        C170   1.410       .  A
C169        C650   1.432       .  A
C170        H171   1.082       .  S
Fe173       O189   2.069       .  S
Fe173       O179   2.065       .  S
Fe173       O186   2.069       .  S
Fe173       O178   2.075       .  S
Fe173       O184   1.979       .  S
Fe174       O177   2.057       .  S
Fe174       O181   2.071       .  S
Fe174       O185   2.066       .  S
Fe174       O190   2.060       .  S
Fe174       O184   1.980       .  S
Fe175       O193   2.084       .  S
Fe175       O180   2.077       .  S
Fe175       O187   2.074       .  S
Fe175       O176   2.078       .  S
Fe175       O184   1.984       .  S
O176        C183   1.272       .  A
O177        C191   1.266       .  A
O178        C183   1.272       .  A
O179        C182   1.269       .  A
O180        C192   1.272       .  A
O181        C194   1.270       .  A
C182        O187   1.272       .  A
C182        C255   1.493       .  S
C183        C234   1.499       .  S
O185        C188   1.267       .  A
O186        C188   1.269       .  A
C188        C207   1.484       .  S
O189        C194   1.272       .  A
O190        C192   1.269       .  A
C191        O193   1.272       .  A
C191        C243   1.498       .  S
C192        C222   1.491       .  S
C194        C195   1.487       .  S
C195        C196   1.404       .  A
C195        C200   1.417       .  A
C196        C197   1.398       .  A
C196        H201   1.085       .  S
C197        C198   1.410       .  A
C197        C204   1.444       .  S
C198        C199   1.404       .  A
C199        C200   1.407       .  A
C199        H202   1.084       .  S
C200        C203   1.444       .  S
C203        N205   1.157       .  T
C204        N206   1.157       .  T
C207        C208   1.405       .  A
C207        C212   1.413       .  A
C208        C209   1.402       .  A
C208        H213   1.085       .  S
C209        C210   1.410       .  A
C209        C216   1.444       .  S
C210        C211   1.404       .  A
C211        C212   1.403       .  A
C211        H214   1.085       .  S
C212        C215   1.444       .  S
C215        N217   1.157       .  T
C216        N700   1.157       .  T
N218        C698   1.157       .  T
C219        C220   1.399       .  A
C219        C224   1.408       .  A
C220        C221   1.399       .  A
C220        H225   1.085       .  S
C221        C222   1.420       .  A
C221        C228   1.445       .  S
C222        C223   1.409       .  A
C223        C224   1.404       .  A
C223        H226   1.084       .  S
C224        C227   1.443       .  S
C227        N229   1.157       .  T
C228        N230   1.157       .  T
C231        C232   1.401       .  A
C231        C236   1.409       .  A
C232        C233   1.404       .  A
C232        H237   1.085       .  S
C233        C234   1.420       .  A
C233        C240   1.444       .  S
C234        C235   1.410       .  A
C235        C236   1.405       .  A
C235        H238   1.084       .  S
C236        C239   1.443       .  S
C239        N241   1.157       .  T
C240        N242   1.157       .  T
C243        C244   1.410       .  A
C243        C248   1.422       .  A
C244        C245   1.405       .  A
C244        H249   1.084       .  S
C245        C246   1.408       .  A
C245        C252   1.443       .  S
C246        C247   1.400       .  A
C247        C248   1.400       .  A
C247        H250   1.085       .  S
C248        C251   1.445       .  S
C251        N253   1.157       .  T
C252        N254   1.157       .  T
C255        C256   1.408       .  A
C255        C260   1.419       .  A
C256        C257   1.402       .  A
C256        H261   1.084       .  S
C257        C258   1.410       .  A
C257        C264   1.444       .  S
C258        C259   1.401       .  A
C259        C260   1.402       .  A
C259        H262   1.085       .  S
C260        C263   1.445       .  S
C263        N265   1.157       .  T
C264       N1230   1.157       .  T
N266       C1228   1.157       .  T
C267        C268   1.405       .  A
C267        C272   1.411       .  A
C268        C269   1.401       .  A
C268        H273   1.085       .  S
C269        C270   1.409       .  A
C269        C276   1.443       .  S
C270        C271   1.403       .  A
C271        C272   1.399       .  A
C271        H274   1.085       .  S
C272        C275   1.443       .  S
C275        N277   1.157       .  T
C276        N278   1.157       .  T
C279        C280   1.405       .  A
C279        C284   1.413       .  A
C280        C281   1.403       .  A
C280        H285   1.084       .  S
C281        C282   1.415       .  A
C281        C288   1.443       .  S
C282        C283   1.399       .  A
C283        C284   1.392       .  A
C283        H286   1.078       .  S
C284        C287   1.446       .  S
C287        N289   1.157       .  T
C288        N290   1.157       .  T
C291        C292   1.407       .  A
C291        C296   1.412       .  A
C292        C293   1.396       .  A
C292        H297   1.082       .  S
C293        C294   1.410       .  A
C293        C782   1.443       .  S
C294        C295   1.414       .  A
C295        C296   1.403       .  A
C295        H298   1.082       .  S
C296        C299   1.445       .  S
C299        N301   1.157       .  T
C300        C775   1.443       .  S
C300        N302   1.158   1_565  T
C303        C304   1.401       .  A
C303        C308   1.410       .  A
C304        C305   1.403       .  A
C304        H309   1.085       .  S
C305        C306   1.419       .  A
C305        C312   1.445       .  S
C306        C307   1.406       .  A
C307        C308   1.396       .  A
C307        H310   1.084       .  S
C308        C311   1.446       .  S
C311        N313   1.157       .  T
C312        N314   1.157       .  T
C315        C316   1.407       .  A
C315        C320   1.426       .  A
C316        C317   1.396       .  A
C316        H321   1.081       .  S
C317        C318   1.408       .  A
C317        C324   1.442       .  S
C318        C319   1.400       .  A
C319        C320   1.402       .  A
C319        H322   1.085       .  S
C320        C323   1.445       .  S
C323        N325   1.158       .  T
C324        N326   1.156       .  T
C327        C328   1.401       .  A
C327        C332   1.413       .  A
C328        C329   1.401       .  A
C328        H333   1.085       .  S
C329        C330   1.420       .  A
C329        C336   1.439       .  S
C330        C331   1.408       .  A
C331        C332   1.401       .  A
C331        H334   1.085       .  S
C332        C335   1.444       .  S
C335        N337   1.157       .  T
C336        N338   1.156       .  T
C339        C340   1.406       .  A
C339        C344   1.418       .  A
C340        C341   1.400       .  A
C340        H345   1.085       .  S
C341        C342   1.417       .  A
C341        C348   1.445       .  S
C342        C343   1.406       .  A
C343        C344   1.402       .  A
C343        H346   1.082       .  S
C344        C347   1.444       .  S
C347        N349   1.157       .  T
C348        N350   1.157       .  T
C351        C352   1.403       .  A
C351        C356   1.419       .  A
C352        C353   1.394       .  A
C352        H357   1.070       .  S
C353        C354   1.410       .  A
C353        C360   1.446       .  S
C354        C355   1.402       .  A
C355        C356   1.404       .  A
C355        H358   1.084       .  S
C356        C359   1.444       .  S
C359        N361   1.157       .  T
C360        N362   1.157       .  T
C363        C364   1.406       .  A
C363        C368   1.411       .  A
C364        C365   1.403       .  A
C364        H369   1.085       .  S
C365        C366   1.412       .  A
C365       C1336   1.443   1_455  S
C366        C367   1.407       .  A
C367        C368   1.404       .  A
C367        H370   1.085       .  S
C368        C371   1.444       .  S
C371        N373   1.157       .  T
C372       C1329   1.443       .  S
C372        N374   1.157       .  T
C375        C376   1.404       .  A
C375        C380   1.414       .  A
C376        C377   1.404       .  A
C376       H1345   1.085       .  S
C377        C378   1.414       .  A
C377        C384   1.443       .  S
C378        C379   1.405       .  A
C379        C380   1.406       .  A
C379        H382   1.084       .  S
C380        C383   1.443       .  S
H381       C1340   1.085       .  S
C383        N385   1.157       .  T
C384       N1350   1.157       .  T
N386       C1348   1.157       .  T
C387        C388   1.401       .  A
C387        C392   1.410       .  A
C388        C389   1.400       .  A
C388        H393   1.084       .  S
C389        C390   1.416       .  A
C389        C396   1.443       .  S
C390        C391   1.411       .  A
C391        C392   1.410       .  A
C391        H394   1.084       .  S
C392        C395   1.443       .  S
C395        N397   1.157       .  T
C396        N398   1.157       .  T
C399        C400   1.404       .  A
C399        C404   1.409       .  A
C400        C401   1.406       .  A
C400        H405   1.084       .  S
C401        C402   1.415       .  A
C401        C890   1.443   1_545  S
C402        C403   1.407       .  A
C403        C404   1.402       .  A
C403        H406   1.085       .  S
C404        C407   1.443       .  S
C407        N409   1.157       .  T
C408        C883   1.443       .  S
C408        N410   1.157       .  T
C411        C412   1.404       .  A
C411        C416   1.413       .  A
C412        C413   1.402       .  A
C412        H417   1.085       .  S
C413        C414   1.413       .  A
C413        C420   1.445       .  S
C414        C415   1.402       .  A
C415        C416   1.400       .  A
C415        H418   1.085       .  S
C416        C419   1.444       .  S
C419        N421   1.157       .  T
C420        N422   1.157       .  T
C423        C424   1.407       .  A
C423        C428   1.420       .  A
C424        C425   1.400       .  A
C424        H429   1.084       .  S
C425        C426   1.410       .  A
C425        C432   1.444       .  S
C426        C427   1.400       .  A
C427        C428   1.403       .  A
C427        H430   1.084       .  S
C428        C431   1.443       .  S
C431        N433   1.157       .  T
C432        N434   1.157       .  T
C435        C436   1.406       .  A
C435        C440   1.417       .  A
C436        C437   1.401       .  A
C436        H441   1.085       .  S
C437        C438   1.409       .  A
C437        C444   1.444       .  S
C438        C439   1.405       .  A
C439        C440   1.408       .  A
C439        H442   1.084       .  S
C440        C443   1.444       .  S
C443        N445   1.158       .  T
C444        N446   1.157       .  T
C447        C448   1.409       .  A
C447        C452   1.417       .  A
C448        C449   1.407       .  A
C448        H453   1.084       .  S
C449        C450   1.409       .  A
C449        C456   1.443       .  S
C450        C451   1.402       .  A
C451        C452   1.403       .  A
C451        H454   1.085       .  S
C452        C455   1.444       .  S
C455        N457   1.157       .  T
C456        N458   1.157       .  T
C459        C460   1.400       .  A
C459        C464   1.410       .  A
C460        C461   1.399       .  A
C460        H465   1.085       .  S
C461        C462   1.420       .  A
C461        C468   1.444       .  S
C462        C463   1.409       .  A
C463        C464   1.405       .  A
C463        H466   1.084       .  S
C464        C467   1.443       .  S
C467        N951   1.157       .  T
C468        N470   1.157       .  T
N469        C949   1.157       .  T
C471        C472   1.411       .  A
C471        C476   1.418       .  A
C472        C473   1.402       .  A
C472        H477   1.084       .  S
C473        C474   1.411       .  A
C473        C480   1.444       .  S
C474        C475   1.405       .  A
C475        C476   1.404       .  A
C475        H478   1.085       .  S
C476        C479   1.444       .  S
C479        N481   1.157       .  T
C480        N964   1.157       .  T
N482        C962   1.157       .  T
Fe483       O499   2.067       .  S
Fe483       O489   2.084       .  S
Fe483       O496   2.081       .  S
Fe483       O488   2.075       .  S
Fe483       O494   1.977       .  S
Fe484       O487   2.067       .  S
Fe484       O491   2.079       .  S
Fe484       O495   2.075       .  S
Fe484       O500   2.073       .  S
Fe484       O494   1.979       .  S
Fe485       O503   2.071       .  S
Fe485       O490   2.064       .  S
Fe485       O497   2.060       .  S
Fe485       O486   2.066       .  S
Fe485       O494   1.978       .  S
O486        C493   1.269       .  A
O487        C501   1.270       .  A
O488        C493   1.270       .  A
O489        C492   1.274       .  A
O490        C502   1.269       .  A
O491        C504   1.271       .  A
C492        O497   1.269       .  A
C492        C944   1.494       .  S
C493        C953   1.500       .  S
O495        C498   1.271       .  A
O496        C498   1.273       .  A
C498        C929   1.494       .  S
O499        C504   1.270       .  A
O500        C502   1.271       .  A
C501        O503   1.268       .  A
C501        C905   1.493       .  S
C502        C893   1.479       .  S
C504        C917   1.492       .  S
N505        C510   1.355       .  A
N505        C509   1.354       .  A
N505        H537   1.037       .  S
N506        C513   1.355   1_556  A
N506        C514   1.355       .  A
N507        C512   1.356       .  A
N507        C511   1.355       .  A
N507        H538   1.040       .  S
N508        C515   1.354       .  A
N508        C516   1.355   1_554  A
C509        C517   1.387       .  A
C509        C525   1.417       .  A
C510        C526   1.417       .  A
C510        C518   1.387       .  A
C511        C519   1.384       .  A
C511        C528   1.416       .  A
C512        C527   1.424       .  A
C512        C520   1.389       .  A
C513        C525   1.420       .  A
C513        C521   1.385       .  A
C514        C528   1.418       .  A
C514        C522   1.385       .  A
C515        C523   1.384       .  A
C515        C526   1.418       .  A
C516        C524   1.387       .  A
C516        C527   1.422       .  A
C517        C518   1.373       .  A
C517        H529   1.082       .  S
C518        H530   1.082       .  S
C519        C520   1.377       .  A
C519        H531   1.082       .  S
C520        H532   1.082       .  S
C521        C522   1.372   1_554  A
C521        H533   1.082       .  S
C522        H534   1.081       .  S
C523        C524   1.376   1_554  A
C523        H535   1.080       .  S
C524        H536   1.082       .  S
C525        C845   1.499       .  S
C526        C881   1.494       .  S
C527        C872   1.510       .  S
C528        C860   1.501       .  S
N539        C544   1.352   1_545  A
N539        H571   1.043       .  S
N540        C547   1.351   1_554  A
N540        C548   1.348       .  A
N541        C546   1.353   1_545  A
N541        H572   1.042       .  S
N542        C549   1.349   1_554  A
N542        C550   1.347       .  A
C543        C551   1.388       .  A
C543        C559   1.419       .  A
C544        C560   1.418       .  A
C544        C552   1.387       .  A
C545        C553   1.388       .  A
C545        C562   1.415       .  A
C546        C561   1.418       .  A
C546        C554   1.388       .  A
C547        C559   1.414       .  A
C547        C555   1.385       .  A
C548        C562   1.410       .  A
C548        C556   1.385       .  A
C549        C557   1.386       .  A
C549        C560   1.414       .  A
C550        C558   1.385       .  A
C550        C561   1.406       .  A
C551        H563   1.082       .  S
C552        H564   1.082       .  S
C553        H565   1.081       .  S
C554        H566   1.082       .  S
C555        C556   1.379   1_556  A
C555        H567   1.082       .  S
C556        H568   1.082       .  S
C557        C558   1.377   1_556  A
C557        H569   1.082       .  S
C558        H570   1.080       .  S
C559        C812   1.507       .  S
C560        C821   1.506       .  S
C561        C836   1.491       .  S
C562        C800   1.495       .  S
N573       C1542   1.358   1_455  A
N573        C577   1.358       .  A
N573        H605   1.034       .  S
N574        C581   1.354   1_556  A
N574        C582   1.355       .  A
N575       C1544   1.352   1_455  A
N575        C579   1.347       .  A
N575        H606   1.038       .  S
N576        C583   1.350   1_556  A
N576        C584   1.351       .  A
C577        C585   1.390       .  A
C577        C593   1.431       .  A
C578       N1537   1.358       .  A
C578        C594   1.426       .  A
C578        C586   1.384       .  A
C579        C587   1.387       .  A
C579        C596   1.409       .  A
C580       N1539   1.352       .  A
C580        C595   1.409       .  A
C580        C588   1.386       .  A
C581        C593   1.426       .  A
C581        C589   1.389       .  A
C582        C596   1.416       .  A
C582        C590   1.384       .  A
C583        C591   1.388       .  A
C583        C594   1.415       .  A
C584        C592   1.379       .  A
C584        C595   1.409       .  A
C585       C1550   1.370   1_455  A
C585        H597   1.076       .  S
C586       C1549   1.370       .  A
C586        H598   1.081       .  S
C587       C1552   1.376   1_455  A
C587        H599   1.082       .  S
C588       C1551   1.376       .  A
C588        H600   1.082       .  S
C589        C590   1.365   1_554  A
C589        H601   1.081       .  S
C590        H602   1.080       .  S
C591        C592   1.371   1_554  A
C591        H603   1.082       .  S
C592        H604   1.078       .  S
C593        C773   1.507       .  S
C594        C788   1.504       .  S
C595        C749   1.490       .  S
C596        C761   1.492       .  S
C607        C740   1.487       .  S
C607       C1572   1.411   1_455  A
C607        C612   1.404       .  A
C608        C932   1.489       .  S
C608       C1571   1.411       .  A
C608        C609   1.402       .  A
C609        C610   1.409       .  A
C609        H614   1.083       .  S
C610        C797   1.507       .  S
C610       C1575   1.430       .  A
C611        C848   1.495       .  S
C611       C1574   1.430   1_455  A
C611        C612   1.405       .  A
C612        H613   1.085       .  S
C615        C896   1.484       .  S
C615        C616   1.413       .  A
C615        C620   1.402       .  A
C616        C728   1.487       .  S
C616        C617   1.402       .  A
C617        C618   1.407       .  A
C617        H622   1.084       .  S
C618        C833   1.501       .  S
C618        C619   1.422       .  A
C619        C785   1.482       .  S
C619        C620   1.402       .  A
C620        H621   1.085       .  S
C623        C920   1.488       .  S
C623       C1588   1.414       .  A
C623        C628   1.403       .  A
C624        C713   1.487       .  S
C624       C1587   1.414   1_455  A
C624        C625   1.406       .  A
C625        C626   1.406       .  A
C625        H630   1.084       .  S
C626        C857   1.497       .  S
C626       C1591   1.421   1_455  A
C627        C809   1.494       .  S
C627       C1590   1.421       .  A
C627        C628   1.407       .  A
C628        H629   1.084       .  S
C631        C701   1.481       .  S
C631        C632   1.411       .  A
C631        C636   1.404       .  A
C632        C908   1.486       .  S
C632        C633   1.401       .  A
C633        C634   1.400       .  A
C633        H638   1.085       .  S
C634        C752   1.481       .  S
C634        C635   1.420       .  A
C635        C824   1.501       .  S
C635        C636   1.409       .  A
C636        H637   1.084       .  S
C639        C692   1.486       .  S
C639        C644   1.400       .  A
C640        C941   1.486       .  S
C640        C641   1.408       .  A
C641        C642   1.405       .  A
C641        H646   1.084       .  S
C642        C869   1.494       .  S
C643        C764   1.489       .  S
C643        C644   1.402       .  A
C644        H645   1.085       .  S
C647        C680   1.486       .  S
C647        C652   1.400       .  A
C648        C956   1.494       .  S
C648        C649   1.406       .  A
C649        C650   1.409       .  A
C649        H654   1.084       .  S
C650        C884   1.497       .  S
C651        C776   1.508       .  S
C651        C652   1.410       .  A
C652        H653   1.082       .  S
Fe655       O671   2.067       .  S
Fe655       O661   2.067       .  S
Fe655       O668   2.070       .  S
Fe655       O660   2.073       .  S
Fe655       O666   1.978       .  S
Fe656       O659   2.056       .  S
Fe656       O663   2.073       .  S
Fe656       O667   2.066       .  S
Fe656       O672   2.063       .  S
Fe656       O666   1.979       .  S
Fe657       O675   2.085       .  S
Fe657       O662   2.075       .  S
Fe657       O669   2.073       .  S
Fe657       O658   2.079       .  S
Fe657       O666   1.983       .  S
O658        C665   1.272       .  A
O659        C673   1.266       .  A
O660        C665   1.271       .  A
O661        C664   1.269       .  A
O662        C674   1.272       .  A
O663        C676   1.270       .  A
C664        O669   1.271       .  A
C664        C737   1.493       .  S
C665        C716   1.498       .  S
O667        C670   1.267       .  A
O668        C670   1.269       .  A
C670        C689   1.484       .  S
O671        C676   1.271       .  A
O672        C674   1.270       .  A
C673        O675   1.272       .  A
C673        C725   1.498       .  S
C674        C704   1.489       .  S
C676        C677   1.487       .  S
C677        C678   1.404       .  A
C677        C682   1.417       .  A
C678        C679   1.398       .  A
C678        H683   1.085       .  S
C679        C680   1.410       .  A
C679        C686   1.444       .  S
C680        C681   1.404       .  A
C681        C682   1.407       .  A
C681        H684   1.084       .  S
C682        C685   1.444       .  S
C685        N687   1.157       .  T
C686        N688   1.157       .  T
C689        C690   1.406       .  A
C689        C694   1.413       .  A
C690        C691   1.402       .  A
C690        H695   1.085       .  S
C691        C692   1.410       .  A
C691        C698   1.444       .  S
C692        C693   1.404       .  A
C693        C694   1.403       .  A
C693        H696   1.085       .  S
C694        C697   1.444       .  S
C697        N699   1.157       .  T
C701        C702   1.399       .  A
C701        C706   1.409       .  A
C702        C703   1.399       .  A
C702        H707   1.085       .  S
C703        C704   1.418       .  A
C703        C710   1.444       .  S
C704        C705   1.408       .  A
C705        C706   1.404       .  A
C705        H708   1.084       .  S
C706        C709   1.443       .  S
C709        N711   1.157       .  T
C710        N712   1.157       .  T
C713        C714   1.401       .  A
C713        C718   1.409       .  A
C714        C715   1.404       .  A
C714        H719   1.085       .  S
C715        C716   1.420       .  A
C715        C722   1.444       .  S
C716        C717   1.409       .  A
C717        C718   1.405       .  A
C717        H720   1.084       .  S
C718        C721   1.443       .  S
C721        N723   1.157       .  T
C722        N724   1.157       .  T
C725        C726   1.409       .  A
C725        C730   1.422       .  A
C726        C727   1.405       .  A
C726        H731   1.084       .  S
C727        C728   1.409       .  A
C727        C734   1.443       .  S
C728        C729   1.400       .  A
C729        C730   1.400       .  A
C729        H732   1.085       .  S
C730        C733   1.445       .  S
C733        N735   1.157       .  T
C734        N736   1.157       .  T
C737        C738   1.408       .  A
C737        C742   1.419       .  A
C738        C739   1.403       .  A
C738        H743   1.084       .  S
C739        C740   1.410       .  A
C739        C746   1.444       .  S
C740        C741   1.401       .  A
C741        C742   1.402       .  A
C741        H744   1.085       .  S
C742        C745   1.444       .  S
C745        N747   1.157       .  T
C746       N1712   1.157       .  T
N748       C1710   1.157       .  T
C749        C750   1.405       .  A
C749        C754   1.411       .  A
C750        C751   1.401       .  A
C750        H755   1.085       .  S
C751        C752   1.409       .  A
C751        C758   1.443       .  S
C752        C753   1.403       .  A
C753        C754   1.399       .  A
C753        H756   1.085       .  S
C754        C757   1.443       .  S
C757        N759   1.157       .  T
C758        N760   1.157       .  T
C761        C762   1.405       .  A
C761        C766   1.413       .  A
C762        C763   1.403       .  A
C762        H767   1.084       .  S
C763        C764   1.415       .  A
C763        C770   1.443       .  S
C764        C765   1.399       .  A
C765        C766   1.391       .  A
C765        H768   1.078       .  S
C766        C769   1.446       .  S
C769        N771   1.157       .  T
C770        N772   1.157       .  T
C773        C774   1.407       .  A
C773        C778   1.412       .  A
C774        C775   1.396       .  A
C774        H779   1.082       .  S
C775        C776   1.410       .  A
C776        C777   1.414       .  A
C777        C778   1.403       .  A
C777        H780   1.082       .  S
C778        C781   1.445       .  S
C781        N783   1.157       .  T
C782        N784   1.158       .  T
C785        C786   1.401       .  A
C785        C790   1.410       .  A
C786        C787   1.404       .  A
C786        H791   1.085       .  S
C787        C788   1.419       .  A
C787        C794   1.445       .  S
C788        C789   1.406       .  A
C789        C790   1.396       .  A
C789        H792   1.084       .  S
C790        C793   1.446       .  S
C793        N795   1.157       .  T
C794        N796   1.157       .  T
C797        C798   1.407       .  A
C797        C802   1.426       .  A
C798        C799   1.396       .  A
C798        H803   1.081       .  S
C799        C800   1.408       .  A
C799        C806   1.441       .  S
C800        C801   1.400       .  A
C801        C802   1.402       .  A
C801        H804   1.085       .  S
C802        C805   1.445       .  S
C805        N807   1.158       .  T
C806        N808   1.156       .  T
C809        C810   1.401       .  A
C809        C814   1.413       .  A
C810        C811   1.401       .  A
C810        H815   1.085       .  S
C811        C812   1.420       .  A
C811        C818   1.439       .  S
C812        C813   1.408       .  A
C813        C814   1.400       .  A
C813        H816   1.085       .  S
C814        C817   1.444       .  S
C817        N819   1.157       .  T
C818        N820   1.156       .  T
C821        C822   1.405       .  A
C821        C826   1.418       .  A
C822        C823   1.400       .  A
C822        H827   1.085       .  S
C823        C824   1.417       .  A
C823        C830   1.445       .  S
C824        C825   1.406       .  A
C825        C826   1.402       .  A
C825        H828   1.082       .  S
C826        C829   1.444       .  S
C829        N831   1.157       .  T
C830        N832   1.157       .  T
C833        C834   1.403       .  A
C833        C838   1.419       .  A
C834        C835   1.394       .  A
C834        H839   1.070       .  S
C835        C836   1.410       .  A
C835        C842   1.446       .  S
C836        C837   1.402       .  A
C837        C838   1.404       .  A
C837        H840   1.084       .  S
C838        C841   1.444       .  S
C841        N843   1.157       .  T
C842        N844   1.157       .  T
C845        C846   1.406       .  A
C845        C850   1.411       .  A
C846        C847   1.403       .  A
C846        H851   1.085       .  S
C847        C848   1.412       .  A
C847       C1818   1.443   1_455  S
C848        C849   1.407       .  A
C849        C850   1.404       .  A
C849        H852   1.085       .  S
C850        C853   1.443       .  S
C853        N855   1.157       .  T
C854       C1811   1.443       .  S
C854        N856   1.157       .  T
C857        C858   1.404       .  A
C857        C862   1.414       .  A
C858        C859   1.404       .  A
C858       H1827   1.085       .  S
C859        C860   1.414       .  A
C859        C866   1.443       .  S
C860        C861   1.405       .  A
C861        C862   1.406       .  A
C861        H864   1.084       .  S
C862        C865   1.443       .  S
H863       C1822   1.085       .  S
C865        N867   1.157       .  T
C866       N1832   1.157       .  T
N868       C1830   1.157       .  T
C869        C870   1.401       .  A
C869        C874   1.410       .  A
C870        C871   1.400       .  A
C870        H875   1.084       .  S
C871        C872   1.416       .  A
C871        C878   1.443       .  S
C872        C873   1.411       .  A
C873        C874   1.409       .  A
C873        H876   1.084       .  S
C874        C877   1.443       .  S
C877        N879   1.157       .  T
C878        N880   1.157       .  T
C881        C882   1.404       .  A
C881        C886   1.409       .  A
C882        C883   1.406       .  A
C882        H887   1.084       .  S
C883        C884   1.415       .  A
C884        C885   1.407       .  A
C885        C886   1.402       .  A
C885        H888   1.085       .  S
C886        C889   1.443       .  S
C889        N891   1.157       .  T
C890        N892   1.157       .  T
C893        C894   1.404       .  A
C893        C898   1.413       .  A
C894        C895   1.402       .  A
C894        H899   1.085       .  S
C895        C896   1.413       .  A
C895        C902   1.445       .  S
C896        C897   1.402       .  A
C897        C898   1.400       .  A
C897        H900   1.085       .  S
C898        C901   1.444       .  S
C901        N903   1.157       .  T
C902        N904   1.157       .  T
C905        C906   1.407       .  A
C905        C910   1.420       .  A
C906        C907   1.400       .  A
C906        H911   1.084       .  S
C907        C908   1.410       .  A
C907        C914   1.444       .  S
C908        C909   1.401       .  A
C909        C910   1.404       .  A
C909        H912   1.084       .  S
C910        C913   1.443       .  S
C913        N915   1.157       .  T
C914        N916   1.157       .  T
C917        C918   1.406       .  A
C917        C922   1.417       .  A
C918        C919   1.400       .  A
C918        H923   1.085       .  S
C919        C920   1.409       .  A
C919        C926   1.444       .  S
C920        C921   1.404       .  A
C921        C922   1.408       .  A
C921        H924   1.084       .  S
C922        C925   1.444       .  S
C925        N927   1.158       .  T
C926        N928   1.157       .  T
C929        C930   1.409       .  A
C929        C934   1.417       .  A
C930        C931   1.406       .  A
C930        H935   1.084       .  S
C931        C932   1.409       .  A
C931        C938   1.443       .  S
C932        C933   1.402       .  A
C933        C934   1.403       .  A
C933        H936   1.085       .  S
C934        C937   1.444       .  S
C937        N939   1.157       .  T
C938        N940   1.157       .  T
C941        C942   1.400       .  A
C941        C946   1.410       .  A
C942        C943   1.400       .  A
C942        H947   1.085       .  S
C943        C944   1.420       .  A
C943        C950   1.444       .  S
C944        C945   1.409       .  A
C945        C946   1.405       .  A
C945        H948   1.084       .  S
C946        C949   1.443       .  S
C950        N952   1.157       .  T
C953        C954   1.411       .  A
C953        C958   1.418       .  A
C954        C955   1.403       .  A
C954        H959   1.084       .  S
C955        C956   1.411       .  A
C955        C962   1.444       .  S
C956        C957   1.404       .  A
C957        C958   1.404       .  A
C957        H960   1.085       .  S
C958        C961   1.444       .  S
C961        N963   1.157       .  T
Fe965       O981   2.067       .  S
Fe965       O971   2.083       .  S
Fe965       O978   2.079       .  S
Fe965       O970   2.075       .  S
Fe965       O976   1.979       .  S
Fe966       O969   2.068       .  S
Fe966       O973   2.079       .  S
Fe966       O977   2.077       .  S
Fe966       O982   2.074       .  S
Fe966       O976   1.980       .  S
Fe967       O985   2.069       .  S
Fe967       O972   2.064       .  S
Fe967       O979   2.059       .  S
Fe967       O968   2.064       .  S
Fe967       O976   1.979       .  S
O968        C975   1.268       .  A
O969        C983   1.270       .  A
O970        C975   1.270       .  A
O971        C974   1.273       .  A
O972        C984   1.269       .  A
O973        C986   1.271       .  A
C974        O979   1.269       .  A
C974       C1426   1.494       .  S
C975       C1435   1.499       .  S
O977        C980   1.272       .  A
O978        C980   1.273       .  A
C980       C1411   1.494       .  S
O981        C986   1.270       .  A
O982        C984   1.271       .  A
C983        O985   1.268       .  A
C983       C1387   1.492       .  S
C984       C1375   1.479       .  S
C986       C1399   1.492       .  S
N987        C992   1.355       .  A
N987        C991   1.354       .  A
N987       H1019   1.037       .  S
N988        C995   1.355   1_556  A
N988        C996   1.355       .  A
N989        C994   1.356       .  A
N989        C993   1.355       .  A
N989       H1020   1.040       .  S
N990        C997   1.354       .  A
N990        C998   1.355   1_554  A
C991        C999   1.387       .  A
C991       C1007   1.417       .  A
C992       C1008   1.417       .  A
C992       C1000   1.387       .  A
C993       C1001   1.384       .  A
C993       C1010   1.416       .  A
C994       C1009   1.424       .  A
C994       C1002   1.389       .  A
C995       C1007   1.419       .  A
C995       C1003   1.385       .  A
C996       C1010   1.417       .  A
C996       C1004   1.385       .  A
C997       C1005   1.385       .  A
C997       C1008   1.418       .  A
C998       C1006   1.387       .  A
C998       C1009   1.422       .  A
C999       C1000   1.373       .  A
C999       H1011   1.082       .  S
C1000      H1012   1.082       .  S
C1001      C1002   1.377       .  A
C1001      H1013   1.082       .  S
C1002      H1014   1.082       .  S
C1003      C1004   1.372   1_554  A
C1003      H1015   1.082       .  S
C1004      H1016   1.081       .  S
C1005      C1006   1.376   1_554  A
C1005      H1017   1.080       .  S
C1006      H1018   1.082       .  S
C1007      C1327   1.499       .  S
C1008      C1363   1.495       .  S
C1009      C1354   1.510       .  S
C1010      C1342   1.501       .  S
N1021      C1026   1.352       .  A
N1021      C1507   1.352       .  A
N1021      H1053   1.043       .  S
N1022      C1029   1.351   1_554  A
N1022      C1030   1.348       .  A
N1023      C1028   1.353       .  A
N1023      C1509   1.352       .  A
N1023      H1054   1.042       .  S
N1024      C1031   1.349   1_554  A
N1024      C1032   1.347       .  A
C1025      N1503   1.352       .  A
C1025      C1033   1.388       .  A
C1025      C1041   1.420       .  A
C1026      C1042   1.418       .  A
C1026      C1034   1.387       .  A
C1027      N1505   1.352       .  A
C1027      C1035   1.388       .  A
C1027      C1044   1.415       .  A
C1028      C1043   1.418       .  A
C1028      C1036   1.388       .  A
C1029      C1041   1.414       .  A
C1029      C1037   1.385       .  A
C1030      C1044   1.410       .  A
C1030      C1038   1.385       .  A
C1031      C1039   1.386       .  A
C1031      C1042   1.414       .  A
C1032      C1040   1.385       .  A
C1032      C1043   1.406       .  A
C1033      C1516   1.381   1_545  A
C1033      H1045   1.082       .  S
C1034      C1515   1.381       .  A
C1034      H1046   1.082       .  S
C1035      C1518   1.375   1_545  A
C1035      H1047   1.081       .  S
C1036      C1517   1.375       .  A
C1036      H1048   1.082       .  S
C1037      C1038   1.379   1_556  A
C1037      H1049   1.082       .  S
C1038      H1050   1.082       .  S
C1039      C1040   1.377   1_556  A
C1039      H1051   1.082       .  S
C1040      H1052   1.080       .  S
C1041      C1294   1.507       .  S
C1042      C1303   1.506       .  S
C1043      C1318   1.491       .  S
C1044      C1282   1.494       .  S
N1055      C1059   1.358       .  A
N1055      H1087   1.033       .  S
N1056      C1063   1.354   1_556  A
N1056      C1064   1.355       .  A
N1057      C1061   1.348       .  A
N1057      H1088   1.037       .  S
N1058      C1065   1.350   1_556  A
N1058      C1066   1.352       .  A
C1059      C1067   1.390       .  A
C1059      C1075   1.431       .  A
C1060      C1076   1.426       .  A
C1060      C1068   1.384       .  A
C1061      C1069   1.387       .  A
C1061      C1078   1.409       .  A
C1062      C1077   1.409       .  A
C1062      C1070   1.386       .  A
C1063      C1075   1.426       .  A
C1063      C1071   1.389       .  A
C1064      C1078   1.416       .  A
C1064      C1072   1.384       .  A
C1065      C1073   1.388       .  A
C1065      C1076   1.415       .  A
C1066      C1074   1.380       .  A
C1066      C1077   1.409       .  A
C1067      H1079   1.076       .  S
C1068      H1080   1.081       .  S
C1069      H1081   1.082       .  S
C1070      H1082   1.082       .  S
C1071      C1072   1.365   1_554  A
C1071      H1083   1.081       .  S
C1072      H1084   1.080       .  S
C1073      C1074   1.370   1_554  A
C1073      H1085   1.082       .  S
C1074      H1086   1.079       .  S
C1075      C1255   1.507       .  S
C1076      C1270   1.503       .  S
C1077      C1231   1.490       .  S
C1078      C1243   1.492       .  S
C1089      C1222   1.486       .  S
C1089      C1094   1.403       .  A
C1090      C1414   1.489       .  S
C1090      C1091   1.402       .  A
C1091      C1092   1.409       .  A
C1091      H1096   1.083       .  S
C1092      C1279   1.507       .  S
C1093      C1330   1.495       .  S
C1093      C1094   1.405       .  A
C1094      H1095   1.085       .  S
C1097      C1378   1.484       .  S
C1097      C1098   1.413       .  A
C1097      C1102   1.402       .  A
C1098      C1210   1.486       .  S
C1098      C1099   1.402       .  A
C1099      C1100   1.407       .  A
C1099      H1104   1.084       .  S
C1100      C1315   1.501       .  S
C1100      C1101   1.422       .  A
C1101      C1267   1.481       .  S
C1101      C1102   1.401       .  A
C1102      H1103   1.085       .  S
C1105      C1402   1.489       .  S
C1105      C1110   1.404       .  A
C1106      C1195   1.488       .  S
C1106      C1107   1.406       .  A
C1107      C1108   1.405       .  A
C1107      H1112   1.084       .  S
C1108      C1339   1.497       .  S
C1109      C1291   1.494       .  S
C1109      C1110   1.408       .  A
C1110      H1111   1.084       .  S
C1113      C1183   1.481       .  S
C1113      C1114   1.411       .  A
C1113      C1118   1.404       .  A
C1114      C1390   1.485       .  S
C1114      C1115   1.400       .  A
C1115      C1116   1.400       .  A
C1115      H1120   1.085       .  S
C1116      C1234   1.481       .  S
C1116      C1117   1.420       .  A
C1117      C1306   1.501       .  S
C1117      C1118   1.409       .  A
C1118      H1119   1.084       .  S
C1121      C1174   1.485       .  S
C1121      C1604   1.415       .  A
C1121      C1126   1.400       .  A
C1122      C1423   1.486       .  S
C1122      C1603   1.415   1_545  A
C1122      C1123   1.408       .  A
C1123      C1124   1.404       .  A
C1123      H1128   1.084       .  S
C1124      C1351   1.495       .  S
C1124      C1607   1.422   1_545  A
C1125      C1246   1.490       .  S
C1125      C1606   1.423       .  A
C1125      C1126   1.402       .  A
C1126      H1127   1.085       .  S
C1129      C1162   1.486       .  S
C1129      C1612   1.411       .  A
C1129      C1134   1.400       .  A
C1130      C1438   1.494       .  S
C1130      C1611   1.411   1_545  A
C1130      C1131   1.406       .  A
C1131      C1132   1.409       .  A
C1131      H1136   1.084       .  S
C1132      C1366   1.497       .  S
C1132      C1615   1.432   1_545  A
C1133      C1258   1.508       .  S
C1133      C1614   1.432       .  A
C1133      C1134   1.410       .  A
C1134      H1135   1.082       .  S
Fe1137     O1153   2.069       .  S
Fe1137     O1143   2.065       .  S
Fe1137     O1150   2.069       .  S
Fe1137     O1142   2.075       .  S
Fe1137     O1148   1.979       .  S
Fe1138     O1141   2.057       .  S
Fe1138     O1145   2.071       .  S
Fe1138     O1149   2.066       .  S
Fe1138     O1154   2.060       .  S
Fe1138     O1148   1.980       .  S
Fe1139     O1157   2.084       .  S
Fe1139     O1144   2.077       .  S
Fe1139     O1151   2.074       .  S
Fe1139     O1140   2.078       .  S
Fe1139     O1148   1.984       .  S
O1140      C1147   1.272       .  A
O1141      C1155   1.266       .  A
O1142      C1147   1.272       .  A
O1143      C1146   1.269       .  A
O1144      C1156   1.272       .  A
O1145      C1158   1.270       .  A
C1146      O1151   1.272       .  A
C1146      C1219   1.493       .  S
C1147      C1198   1.499       .  S
O1149      C1152   1.267       .  A
O1150      C1152   1.269       .  A
C1152      C1171   1.484       .  S
O1153      C1158   1.272       .  A
O1154      C1156   1.269       .  A
C1155      O1157   1.272       .  A
C1155      C1207   1.498       .  S
C1156      C1186   1.491       .  S
C1158      C1159   1.487       .  S
C1159      C1160   1.404       .  A
C1159      C1164   1.417       .  A
C1160      C1161   1.398       .  A
C1160      H1165   1.085       .  S
C1161      C1162   1.410       .  A
C1161      C1168   1.444       .  S
C1162      C1163   1.404       .  A
C1163      C1164   1.407       .  A
C1163      H1166   1.084       .  S
C1164      C1167   1.444       .  S
C1167      N1169   1.157       .  T
C1168      N1170   1.157       .  T
C1171      C1172   1.405       .  A
C1171      C1176   1.413       .  A
C1172      C1173   1.402       .  A
C1172      H1177   1.085       .  S
C1173      C1174   1.410       .  A
C1173      C1180   1.444       .  S
C1174      C1175   1.404       .  A
C1175      C1176   1.403       .  A
C1175      H1178   1.085       .  S
C1176      C1179   1.444       .  S
C1179      N1181   1.157       .  T
C1180      N1664   1.157       .  T
N1182      C1662   1.157       .  T
C1183      C1184   1.399       .  A
C1183      C1188   1.408       .  A
C1184      C1185   1.399       .  A
C1184      H1189   1.085       .  S
C1185      C1186   1.420       .  A
C1185      C1192   1.445       .  S
C1186      C1187   1.409       .  A
C1187      C1188   1.404       .  A
C1187      H1190   1.084       .  S
C1188      C1191   1.443       .  S
C1191      N1193   1.157       .  T
C1192      N1194   1.157       .  T
C1195      C1196   1.401       .  A
C1195      C1200   1.409       .  A
C1196      C1197   1.404       .  A
C1196      H1201   1.085       .  S
C1197      C1198   1.420       .  A
C1197      C1204   1.444       .  S
C1198      C1199   1.410       .  A
C1199      C1200   1.405       .  A
C1199      H1202   1.084       .  S
C1200      C1203   1.443       .  S
C1203      N1205   1.157       .  T
C1204      N1206   1.157       .  T
C1207      C1208   1.410       .  A
C1207      C1212   1.422       .  A
C1208      C1209   1.405       .  A
C1208      H1213   1.084       .  S
C1209      C1210   1.408       .  A
C1209      C1216   1.443       .  S
C1210      C1211   1.400       .  A
C1211      C1212   1.400       .  A
C1211      H1214   1.085       .  S
C1212      C1215   1.445       .  S
C1215      N1217   1.157       .  T
C1216      N1218   1.157       .  T
C1219      C1220   1.408       .  A
C1219      C1224   1.419       .  A
C1220      C1221   1.402       .  A
C1220      H1225   1.084       .  S
C1221      C1222   1.410       .  A
C1221      C1228   1.444       .  S
C1222      C1223   1.401       .  A
C1223      C1224   1.402       .  A
C1223      H1226   1.085       .  S
C1224      C1227   1.445       .  S
C1227      N1229   1.157       .  T
C1231      C1232   1.405       .  A
C1231      C1236   1.411       .  A
C1232      C1233   1.401       .  A
C1232      H1237   1.085       .  S
C1233      C1234   1.409       .  A
C1233      C1240   1.443       .  S
C1234      C1235   1.403       .  A
C1235      C1236   1.399       .  A
C1235      H1238   1.085       .  S
C1236      C1239   1.443       .  S
C1239      N1241   1.157       .  T
C1240      N1242   1.157       .  T
C1243      C1244   1.405       .  A
C1243      C1248   1.413       .  A
C1244      C1245   1.403       .  A
C1244      H1249   1.084       .  S
C1245      C1246   1.415       .  A
C1245      C1252   1.443       .  S
C1246      C1247   1.399       .  A
C1247      C1248   1.392       .  A
C1247      H1250   1.078       .  S
C1248      C1251   1.446       .  S
C1251      N1253   1.157       .  T
C1252      N1254   1.157       .  T
C1255      C1256   1.407       .  A
C1255      C1260   1.412       .  A
C1256      C1257   1.396       .  A
C1256      H1261   1.082       .  S
C1257      C1258   1.410       .  A
C1257      C1746   1.443       .  S
C1258      C1259   1.414       .  A
C1259      C1260   1.403       .  A
C1259      H1262   1.082       .  S
C1260      C1263   1.445       .  S
C1263      N1265   1.157       .  T
C1264      C1739   1.443       .  S
C1264      N1266   1.158   1_565  T
C1267      C1268   1.401       .  A
C1267      C1272   1.410       .  A
C1268      C1269   1.403       .  A
C1268      H1273   1.085       .  S
C1269      C1270   1.419       .  A
C1269      C1276   1.445       .  S
C1270      C1271   1.406       .  A
C1271      C1272   1.396       .  A
C1271      H1274   1.084       .  S
C1272      C1275   1.446       .  S
C1275      N1277   1.157       .  T
C1276      N1278   1.157       .  T
C1279      C1280   1.407       .  A
C1279      C1284   1.426       .  A
C1280      C1281   1.396       .  A
C1280      H1285   1.081       .  S
C1281      C1282   1.408       .  A
C1281      C1288   1.442       .  S
C1282      C1283   1.400       .  A
C1283      C1284   1.402       .  A
C1283      H1286   1.085       .  S
C1284      C1287   1.445       .  S
C1287      N1289   1.158       .  T
C1288      N1290   1.156       .  T
C1291      C1292   1.401       .  A
C1291      C1296   1.413       .  A
C1292      C1293   1.401       .  A
C1292      H1297   1.085       .  S
C1293      C1294   1.420       .  A
C1293      C1300   1.439       .  S
C1294      C1295   1.408       .  A
C1295      C1296   1.401       .  A
C1295      H1298   1.085       .  S
C1296      C1299   1.444       .  S
C1299      N1301   1.157       .  T
C1300      N1302   1.156       .  T
C1303      C1304   1.406       .  A
C1303      C1308   1.418       .  A
C1304      C1305   1.400       .  A
C1304      H1309   1.085       .  S
C1305      C1306   1.417       .  A
C1305      C1312   1.445       .  S
C1306      C1307   1.406       .  A
C1307      C1308   1.402       .  A
C1307      H1310   1.082       .  S
C1308      C1311   1.444       .  S
C1311      N1313   1.157       .  T
C1312      N1314   1.157       .  T
C1315      C1316   1.403       .  A
C1315      C1320   1.419       .  A
C1316      C1317   1.394       .  A
C1316      H1321   1.070       .  S
C1317      C1318   1.410       .  A
C1317      C1324   1.446       .  S
C1318      C1319   1.402       .  A
C1319      C1320   1.404       .  A
C1319      H1322   1.084       .  S
C1320      C1323   1.444       .  S
C1323      N1325   1.157       .  T
C1324      N1326   1.157       .  T
C1327      C1328   1.406       .  A
C1327      C1332   1.411       .  A
C1328      C1329   1.403       .  A
C1328      H1333   1.085       .  S
C1329      C1330   1.412       .  A
C1330      C1331   1.407       .  A
C1331      C1332   1.404       .  A
C1331      H1334   1.085       .  S
C1332      C1335   1.444       .  S
C1335      N1337   1.157       .  T
C1336      N1338   1.157       .  T
C1339      C1340   1.404       .  A
C1339      C1344   1.414       .  A
C1340      C1341   1.404       .  A
C1341      C1342   1.414       .  A
C1341      C1348   1.443       .  S
C1342      C1343   1.405       .  A
C1343      C1344   1.406       .  A
C1343      H1346   1.084       .  S
C1344      C1347   1.443       .  S
C1347      N1349   1.157       .  T
C1351      C1352   1.401       .  A
C1351      C1356   1.410       .  A
C1352      C1353   1.400       .  A
C1352      H1357   1.084       .  S
C1353      C1354   1.416       .  A
C1353      C1360   1.443       .  S
C1354      C1355   1.411       .  A
C1355      C1356   1.410       .  A
C1355      H1358   1.084       .  S
C1356      C1359   1.443       .  S
C1359      N1361   1.157       .  T
C1360      N1362   1.157       .  T
C1363      C1364   1.404       .  A
C1363      C1368   1.409       .  A
C1364      C1365   1.406       .  A
C1364      H1369   1.084       .  S
C1365      C1366   1.415       .  A
C1365      C1854   1.443   1_545  S
C1366      C1367   1.407       .  A
C1367      C1368   1.402       .  A
C1367      H1370   1.085       .  S
C1368      C1371   1.443       .  S
C1371      N1373   1.157       .  T
C1372      C1847   1.443       .  S
C1372      N1374   1.157       .  T
C1375      C1376   1.404       .  A
C1375      C1380   1.413       .  A
C1376      C1377   1.402       .  A
C1376      H1381   1.085       .  S
C1377      C1378   1.413       .  A
C1377      C1384   1.445       .  S
C1378      C1379   1.402       .  A
C1379      C1380   1.400       .  A
C1379      H1382   1.085       .  S
C1380      C1383   1.444       .  S
C1383      N1385   1.157       .  T
C1384      N1386   1.157       .  T
C1387      C1388   1.407       .  A
C1387      C1392   1.420       .  A
C1388      C1389   1.400       .  A
C1388      H1393   1.084       .  S
C1389      C1390   1.410       .  A
C1389      C1396   1.444       .  S
C1390      C1391   1.400       .  A
C1391      C1392   1.403       .  A
C1391      H1394   1.084       .  S
C1392      C1395   1.443       .  S
C1395      N1397   1.157       .  T
C1396      N1398   1.157       .  T
C1399      C1400   1.406       .  A
C1399      C1404   1.417       .  A
C1400      C1401   1.401       .  A
C1400      H1405   1.085       .  S
C1401      C1402   1.409       .  A
C1401      C1408   1.444       .  S
C1402      C1403   1.405       .  A
C1403      C1404   1.408       .  A
C1403      H1406   1.084       .  S
C1404      C1407   1.444       .  S
C1407      N1409   1.158       .  T
C1408      N1410   1.157       .  T
C1411      C1412   1.409       .  A
C1411      C1416   1.417       .  A
C1412      C1413   1.407       .  A
C1412      H1417   1.084       .  S
C1413      C1414   1.409       .  A
C1413      C1420   1.443       .  S
C1414      C1415   1.402       .  A
C1415      C1416   1.403       .  A
C1415      H1418   1.085       .  S
C1416      C1419   1.444       .  S
C1419      N1421   1.157       .  T
C1420      N1422   1.157       .  T
C1423      C1424   1.400       .  A
C1423      C1428   1.410       .  A
C1424      C1425   1.399       .  A
C1424      H1429   1.085       .  S
C1425      C1426   1.420       .  A
C1425      C1432   1.444       .  S
C1426      C1427   1.409       .  A
C1427      C1428   1.405       .  A
C1427      H1430   1.084       .  S
C1428      C1431   1.443       .  S
C1431      N1915   1.157       .  T
C1432      N1434   1.157       .  T
N1433      C1913   1.157       .  T
C1435      C1436   1.411       .  A
C1435      C1440   1.418       .  A
C1436      C1437   1.402       .  A
C1436      H1441   1.084       .  S
C1437      C1438   1.411       .  A
C1437      C1444   1.444       .  S
C1438      C1439   1.405       .  A
C1439      C1440   1.404       .  A
C1439      H1442   1.085       .  S
C1440      C1443   1.444       .  S
C1443      N1445   1.157       .  T
C1444      N1928   1.157       .  T
N1446      C1926   1.157       .  T
Fe1447     O1463   2.067       .  S
Fe1447     O1453   2.084       .  S
Fe1447     O1460   2.081       .  S
Fe1447     O1452   2.075       .  S
Fe1447     O1458   1.977       .  S
Fe1448     O1451   2.067       .  S
Fe1448     O1455   2.079       .  S
Fe1448     O1459   2.075       .  S
Fe1448     O1464   2.073       .  S
Fe1448     O1458   1.979       .  S
Fe1449     O1467   2.071       .  S
Fe1449     O1454   2.064       .  S
Fe1449     O1461   2.060       .  S
Fe1449     O1450   2.066       .  S
Fe1449     O1458   1.978       .  S
O1450      C1457   1.269       .  A
O1451      C1465   1.270       .  A
O1452      C1457   1.270       .  A
O1453      C1456   1.274       .  A
O1454      C1466   1.269       .  A
O1455      C1468   1.271       .  A
C1456      O1461   1.269       .  A
C1456      C1908   1.494       .  S
C1457      C1917   1.500       .  S
O1459      C1462   1.271       .  A
O1460      C1462   1.273       .  A
C1462      C1893   1.494       .  S
O1463      C1468   1.270       .  A
O1464      C1466   1.271       .  A
C1465      O1467   1.268       .  A
C1465      C1869   1.493       .  S
C1466      C1857   1.479       .  S
C1468      C1881   1.492       .  S
N1469      C1474   1.355       .  A
N1469      C1473   1.354       .  A
N1469      H1501   1.037       .  S
N1470      C1477   1.355   1_556  A
N1470      C1478   1.355       .  A
N1471      C1476   1.356       .  A
N1471      C1475   1.355       .  A
N1471      H1502   1.040       .  S
N1472      C1479   1.354       .  A
N1472      C1480   1.355   1_554  A
C1473      C1481   1.387       .  A
C1473      C1489   1.417       .  A
C1474      C1490   1.417       .  A
C1474      C1482   1.387       .  A
C1475      C1483   1.384       .  A
C1475      C1492   1.416       .  A
C1476      C1491   1.424       .  A
C1476      C1484   1.389       .  A
C1477      C1489   1.420       .  A
C1477      C1485   1.385       .  A
C1478      C1492   1.418       .  A
C1478      C1486   1.385       .  A
C1479      C1487   1.384       .  A
C1479      C1490   1.418       .  A
C1480      C1488   1.387       .  A
C1480      C1491   1.422       .  A
C1481      C1482   1.373       .  A
C1481      H1493   1.082       .  S
C1482      H1494   1.082       .  S
C1483      C1484   1.377       .  A
C1483      H1495   1.082       .  S
C1484      H1496   1.082       .  S
C1485      C1486   1.372   1_554  A
C1485      H1497   1.082       .  S
C1486      H1498   1.081       .  S
C1487      C1488   1.376   1_554  A
C1487      H1499   1.080       .  S
C1488      H1500   1.082       .  S
C1489      C1809   1.499       .  S
C1490      C1845   1.494       .  S
C1491      C1836   1.510       .  S
C1492      C1824   1.501       .  S
N1503      C1508   1.352   1_545  A
N1503      H1535   1.043       .  S
N1504      C1511   1.351   1_554  A
N1504      C1512   1.348       .  A
N1505      C1510   1.353   1_545  A
N1505      H1536   1.042       .  S
N1506      C1513   1.349   1_554  A
N1506      C1514   1.347       .  A
C1507      C1515   1.388       .  A
C1507      C1523   1.419       .  A
C1508      C1524   1.418       .  A
C1508      C1516   1.387       .  A
C1509      C1517   1.388       .  A
C1509      C1526   1.415       .  A
C1510      C1525   1.418       .  A
C1510      C1518   1.388       .  A
C1511      C1523   1.414       .  A
C1511      C1519   1.385       .  A
C1512      C1526   1.410       .  A
C1512      C1520   1.385       .  A
C1513      C1521   1.386       .  A
C1513      C1524   1.414       .  A
C1514      C1522   1.385       .  A
C1514      C1525   1.406       .  A
C1515      H1527   1.082       .  S
C1516      H1528   1.082       .  S
C1517      H1529   1.081       .  S
C1518      H1530   1.082       .  S
C1519      C1520   1.379   1_556  A
C1519      H1531   1.082       .  S
C1520      H1532   1.082       .  S
C1521      C1522   1.377   1_556  A
C1521      H1533   1.082       .  S
C1522      H1534   1.080       .  S
C1523      C1776   1.507       .  S
C1524      C1785   1.506       .  S
C1525      C1800   1.491       .  S
C1526      C1764   1.495       .  S
N1537      C1541   1.358       .  A
N1537      H1569   1.034       .  S
N1538      C1545   1.354   1_556  A
N1538      C1546   1.355       .  A
N1539      C1543   1.347       .  A
N1539      H1570   1.038       .  S
N1540      C1547   1.350   1_556  A
N1540      C1548   1.351       .  A
C1541      C1549   1.390       .  A
C1541      C1557   1.431       .  A
C1542      C1558   1.426       .  A
C1542      C1550   1.384       .  A
C1543      C1551   1.387       .  A
C1543      C1560   1.409       .  A
C1544      C1559   1.409       .  A
C1544      C1552   1.386       .  A
C1545      C1557   1.426       .  A
C1545      C1553   1.389       .  A
C1546      C1560   1.416       .  A
C1546      C1554   1.384       .  A
C1547      C1555   1.388       .  A
C1547      C1558   1.415       .  A
C1548      C1556   1.379       .  A
C1548      C1559   1.409       .  A
C1549      H1561   1.076       .  S
C1550      H1562   1.081       .  S
C1551      H1563   1.082       .  S
C1552      H1564   1.082       .  S
C1553      C1554   1.365   1_554  A
C1553      H1565   1.081       .  S
C1554      H1566   1.080       .  S
C1555      C1556   1.371   1_554  A
C1555      H1567   1.082       .  S
C1556      H1568   1.078       .  S
C1557      C1737   1.507       .  S
C1558      C1752   1.504       .  S
C1559      C1713   1.490       .  S
C1560      C1725   1.492       .  S
C1571      C1704   1.487       .  S
C1571      C1576   1.404       .  A
C1572      C1896   1.489       .  S
C1572      C1573   1.402       .  A
C1573      C1574   1.409       .  A
C1573      H1578   1.083       .  S
C1574      C1761   1.507       .  S
C1575      C1812   1.495       .  S
C1575      C1576   1.405       .  A
C1576      H1577   1.085       .  S
C1579      C1860   1.484       .  S
C1579      C1580   1.413       .  A
C1579      C1584   1.402       .  A
C1580      C1692   1.487       .  S
C1580      C1581   1.402       .  A
C1581      C1582   1.407       .  A
C1581      H1586   1.084       .  S
C1582      C1797   1.501       .  S
C1582      C1583   1.422       .  A
C1583      C1749   1.482       .  S
C1583      C1584   1.402       .  A
C1584      H1585   1.085       .  S
C1587      C1884   1.488       .  S
C1587      C1592   1.403       .  A
C1588      C1677   1.487       .  S
C1588      C1589   1.406       .  A
C1589      C1590   1.406       .  A
C1589      H1594   1.084       .  S
C1590      C1821   1.497       .  S
C1591      C1773   1.494       .  S
C1591      C1592   1.407       .  A
C1592      H1593   1.084       .  S
C1595      C1665   1.481       .  S
C1595      C1596   1.411       .  A
C1595      C1600   1.404       .  A
C1596      C1872   1.486       .  S
C1596      C1597   1.401       .  A
C1597      C1598   1.400       .  A
C1597      H1602   1.085       .  S
C1598      C1716   1.481       .  S
C1598      C1599   1.420       .  A
C1599      C1788   1.501       .  S
C1599      C1600   1.409       .  A
C1600      H1601   1.084       .  S
C1603      C1656   1.486       .  S
C1603      C1608   1.400       .  A
C1604      C1905   1.486       .  S
C1604      C1605   1.408       .  A
C1605      C1606   1.405       .  A
C1605      H1610   1.084       .  S
C1606      C1833   1.494       .  S
C1607      C1728   1.489       .  S
C1607      C1608   1.402       .  A
C1608      H1609   1.085       .  S
C1611      C1644   1.486       .  S
C1611      C1616   1.400       .  A
C1612      C1920   1.494       .  S
C1612      C1613   1.406       .  A
C1613      C1614   1.409       .  A
C1613      H1618   1.084       .  S
C1614      C1848   1.497       .  S
C1615      C1740   1.508       .  S
C1615      C1616   1.410       .  A
C1616      H1617   1.082       .  S
Fe1619     O1635   2.067       .  S
Fe1619     O1625   2.067       .  S
Fe1619     O1632   2.070       .  S
Fe1619     O1624   2.073       .  S
Fe1619     O1630   1.978       .  S
Fe1620     O1623   2.056       .  S
Fe1620     O1627   2.073       .  S
Fe1620     O1631   2.066       .  S
Fe1620     O1636   2.063       .  S
Fe1620     O1630   1.979       .  S
Fe1621     O1639   2.085       .  S
Fe1621     O1626   2.075       .  S
Fe1621     O1633   2.073       .  S
Fe1621     O1622   2.079       .  S
Fe1621     O1630   1.983       .  S
O1622      C1629   1.272       .  A
O1623      C1637   1.266       .  A
O1624      C1629   1.271       .  A
O1625      C1628   1.269       .  A
O1626      C1638   1.272       .  A
O1627      C1640   1.270       .  A
C1628      O1633   1.271       .  A
C1628      C1701   1.493       .  S
C1629      C1680   1.498       .  S
O1631      C1634   1.267       .  A
O1632      C1634   1.269       .  A
C1634      C1653   1.484       .  S
O1635      C1640   1.271       .  A
O1636      C1638   1.270       .  A
C1637      O1639   1.272       .  A
C1637      C1689   1.498       .  S
C1638      C1668   1.489       .  S
C1640      C1641   1.487       .  S
C1641      C1642   1.404       .  A
C1641      C1646   1.417       .  A
C1642      C1643   1.398       .  A
C1642      H1647   1.085       .  S
C1643      C1644   1.410       .  A
C1643      C1650   1.444       .  S
C1644      C1645   1.404       .  A
C1645      C1646   1.407       .  A
C1645      H1648   1.084       .  S
C1646      C1649   1.444       .  S
C1649      N1651   1.157       .  T
C1650      N1652   1.157       .  T
C1653      C1654   1.406       .  A
C1653      C1658   1.413       .  A
C1654      C1655   1.402       .  A
C1654      H1659   1.085       .  S
C1655      C1656   1.410       .  A
C1655      C1662   1.444       .  S
C1656      C1657   1.404       .  A
C1657      C1658   1.403       .  A
C1657      H1660   1.085       .  S
C1658      C1661   1.444       .  S
C1661      N1663   1.157       .  T
C1665      C1666   1.399       .  A
C1665      C1670   1.409       .  A
C1666      C1667   1.399       .  A
C1666      H1671   1.085       .  S
C1667      C1668   1.418       .  A
C1667      C1674   1.444       .  S
C1668      C1669   1.408       .  A
C1669      C1670   1.404       .  A
C1669      H1672   1.084       .  S
C1670      C1673   1.443       .  S
C1673      N1675   1.157       .  T
C1674      N1676   1.157       .  T
C1677      C1678   1.401       .  A
C1677      C1682   1.409       .  A
C1678      C1679   1.404       .  A
C1678      H1683   1.085       .  S
C1679      C1680   1.420       .  A
C1679      C1686   1.444       .  S
C1680      C1681   1.409       .  A
C1681      C1682   1.405       .  A
C1681      H1684   1.084       .  S
C1682      C1685   1.443       .  S
C1685      N1687   1.157       .  T
C1686      N1688   1.157       .  T
C1689      C1690   1.409       .  A
C1689      C1694   1.422       .  A
C1690      C1691   1.405       .  A
C1690      H1695   1.084       .  S
C1691      C1692   1.409       .  A
C1691      C1698   1.443       .  S
C1692      C1693   1.400       .  A
C1693      C1694   1.400       .  A
C1693      H1696   1.085       .  S
C1694      C1697   1.445       .  S
C1697      N1699   1.157       .  T
C1698      N1700   1.157       .  T
C1701      C1702   1.408       .  A
C1701      C1706   1.419       .  A
C1702      C1703   1.403       .  A
C1702      H1707   1.084       .  S
C1703      C1704   1.410       .  A
C1703      C1710   1.444       .  S
C1704      C1705   1.401       .  A
C1705      C1706   1.402       .  A
C1705      H1708   1.085       .  S
C1706      C1709   1.444       .  S
C1709      N1711   1.157       .  T
C1713      C1714   1.405       .  A
C1713      C1718   1.411       .  A
C1714      C1715   1.401       .  A
C1714      H1719   1.085       .  S
C1715      C1716   1.409       .  A
C1715      C1722   1.443       .  S
C1716      C1717   1.403       .  A
C1717      C1718   1.399       .  A
C1717      H1720   1.085       .  S
C1718      C1721   1.443       .  S
C1721      N1723   1.157       .  T
C1722      N1724   1.157       .  T
C1725      C1726   1.405       .  A
C1725      C1730   1.413       .  A
C1726      C1727   1.403       .  A
C1726      H1731   1.084       .  S
C1727      C1728   1.415       .  A
C1727      C1734   1.443       .  S
C1728      C1729   1.399       .  A
C1729      C1730   1.391       .  A
C1729      H1732   1.078       .  S
C1730      C1733   1.446       .  S
C1733      N1735   1.157       .  T
C1734      N1736   1.157       .  T
C1737      C1738   1.407       .  A
C1737      C1742   1.412       .  A
C1738      C1739   1.396       .  A
C1738      H1743   1.082       .  S
C1739      C1740   1.410       .  A
C1740      C1741   1.414       .  A
C1741      C1742   1.403       .  A
C1741      H1744   1.082       .  S
C1742      C1745   1.445       .  S
C1745      N1747   1.157       .  T
C1746      N1748   1.158       .  T
C1749      C1750   1.401       .  A
C1749      C1754   1.410       .  A
C1750      C1751   1.404       .  A
C1750      H1755   1.085       .  S
C1751      C1752   1.419       .  A
C1751      C1758   1.445       .  S
C1752      C1753   1.406       .  A
C1753      C1754   1.396       .  A
C1753      H1756   1.084       .  S
C1754      C1757   1.446       .  S
C1757      N1759   1.157       .  T
C1758      N1760   1.157       .  T
C1761      C1762   1.407       .  A
C1761      C1766   1.426       .  A
C1762      C1763   1.396       .  A
C1762      H1767   1.081       .  S
C1763      C1764   1.408       .  A
C1763      C1770   1.441       .  S
C1764      C1765   1.400       .  A
C1765      C1766   1.402       .  A
C1765      H1768   1.085       .  S
C1766      C1769   1.445       .  S
C1769      N1771   1.158       .  T
C1770      N1772   1.156       .  T
C1773      C1774   1.401       .  A
C1773      C1778   1.413       .  A
C1774      C1775   1.401       .  A
C1774      H1779   1.085       .  S
C1775      C1776   1.420       .  A
C1775      C1782   1.439       .  S
C1776      C1777   1.408       .  A
C1777      C1778   1.400       .  A
C1777      H1780   1.085       .  S
C1778      C1781   1.444       .  S
C1781      N1783   1.157       .  T
C1782      N1784   1.156       .  T
C1785      C1786   1.405       .  A
C1785      C1790   1.418       .  A
C1786      C1787   1.400       .  A
C1786      H1791   1.085       .  S
C1787      C1788   1.417       .  A
C1787      C1794   1.445       .  S
C1788      C1789   1.406       .  A
C1789      C1790   1.402       .  A
C1789      H1792   1.082       .  S
C1790      C1793   1.444       .  S
C1793      N1795   1.157       .  T
C1794      N1796   1.157       .  T
C1797      C1798   1.403       .  A
C1797      C1802   1.419       .  A
C1798      C1799   1.394       .  A
C1798      H1803   1.070       .  S
C1799      C1800   1.410       .  A
C1799      C1806   1.446       .  S
C1800      C1801   1.402       .  A
C1801      C1802   1.404       .  A
C1801      H1804   1.084       .  S
C1802      C1805   1.444       .  S
C1805      N1807   1.157       .  T
C1806      N1808   1.157       .  T
C1809      C1810   1.406       .  A
C1809      C1814   1.411       .  A
C1810      C1811   1.403       .  A
C1810      H1815   1.085       .  S
C1811      C1812   1.412       .  A
C1812      C1813   1.407       .  A
C1813      C1814   1.404       .  A
C1813      H1816   1.085       .  S
C1814      C1817   1.443       .  S
C1817      N1819   1.157       .  T
C1818      N1820   1.157       .  T
C1821      C1822   1.404       .  A
C1821      C1826   1.414       .  A
C1822      C1823   1.404       .  A
C1823      C1824   1.414       .  A
C1823      C1830   1.443       .  S
C1824      C1825   1.405       .  A
C1825      C1826   1.406       .  A
C1825      H1828   1.084       .  S
C1826      C1829   1.443       .  S
C1829      N1831   1.157       .  T
C1833      C1834   1.401       .  A
C1833      C1838   1.410       .  A
C1834      C1835   1.400       .  A
C1834      H1839   1.084       .  S
C1835      C1836   1.416       .  A
C1835      C1842   1.443       .  S
C1836      C1837   1.411       .  A
C1837      C1838   1.409       .  A
C1837      H1840   1.084       .  S
C1838      C1841   1.443       .  S
C1841      N1843   1.157       .  T
C1842      N1844   1.157       .  T
C1845      C1846   1.404       .  A
C1845      C1850   1.409       .  A
C1846      C1847   1.406       .  A
C1846      H1851   1.084       .  S
C1847      C1848   1.415       .  A
C1848      C1849   1.407       .  A
C1849      C1850   1.402       .  A
C1849      H1852   1.085       .  S
C1850      C1853   1.443       .  S
C1853      N1855   1.157       .  T
C1854      N1856   1.157       .  T
C1857      C1858   1.404       .  A
C1857      C1862   1.413       .  A
C1858      C1859   1.402       .  A
C1858      H1863   1.085       .  S
C1859      C1860   1.413       .  A
C1859      C1866   1.445       .  S
C1860      C1861   1.402       .  A
C1861      C1862   1.400       .  A
C1861      H1864   1.085       .  S
C1862      C1865   1.444       .  S
C1865      N1867   1.157       .  T
C1866      N1868   1.157       .  T
C1869      C1870   1.407       .  A
C1869      C1874   1.420       .  A
C1870      C1871   1.400       .  A
C1870      H1875   1.084       .  S
C1871      C1872   1.410       .  A
C1871      C1878   1.444       .  S
C1872      C1873   1.401       .  A
C1873      C1874   1.404       .  A
C1873      H1876   1.084       .  S
C1874      C1877   1.443       .  S
C1877      N1879   1.157       .  T
C1878      N1880   1.157       .  T
C1881      C1882   1.406       .  A
C1881      C1886   1.417       .  A
C1882      C1883   1.400       .  A
C1882      H1887   1.085       .  S
C1883      C1884   1.409       .  A
C1883      C1890   1.444       .  S
C1884      C1885   1.404       .  A
C1885      C1886   1.408       .  A
C1885      H1888   1.084       .  S
C1886      C1889   1.444       .  S
C1889      N1891   1.158       .  T
C1890      N1892   1.157       .  T
C1893      C1894   1.409       .  A
C1893      C1898   1.417       .  A
C1894      C1895   1.406       .  A
C1894      H1899   1.084       .  S
C1895      C1896   1.409       .  A
C1895      C1902   1.443       .  S
C1896      C1897   1.402       .  A
C1897      C1898   1.403       .  A
C1897      H1900   1.085       .  S
C1898      C1901   1.444       .  S
C1901      N1903   1.157       .  T
C1902      N1904   1.157       .  T
C1905      C1906   1.400       .  A
C1905      C1910   1.410       .  A
C1906      C1907   1.400       .  A
C1906      H1911   1.085       .  S
C1907      C1908   1.420       .  A
C1907      C1914   1.444       .  S
C1908      C1909   1.409       .  A
C1909      C1910   1.405       .  A
C1909      H1912   1.084       .  S
C1910      C1913   1.443       .  S
C1914      N1916   1.157       .  T
C1917      C1918   1.411       .  A
C1917      C1922   1.418       .  A
C1918      C1919   1.403       .  A
C1918      H1923   1.084       .  S
C1919      C1920   1.411       .  A
C1919      C1926   1.444       .  S
C1920      C1921   1.404       .  A
C1921      C1922   1.404       .  A
C1921      H1924   1.085       .  S
C1922      C1925   1.444       .  S
C1925      N1927   1.157       .  T
