geometry optimzed in LAMMPS
_audit_creation_date              2020-11-30 
_audit_creation_method            'lammps2cif' 
_symmetry_space_group_name_H-M    'P1' 
_symmetry_Int_Tables_number       1 
_symmetry_cell_setting            triclinic 
loop_ 
_symmetry_equiv_pos_as_xyz 
  x,y,z 
_cell_length_a                    29.74259963 
_cell_length_b                    29.81493972130381 
_cell_length_c                    77.37338765935652 
_cell_angle_alpha                 89.70543713295935 
_cell_angle_beta                  90.04071905010368 
_cell_angle_gamma                 88.64346796105325 
loop_ 
_atom_site_label 
_atom_site_type_symbol 
_atom_site_fract_x 
_atom_site_fract_y 
_atom_site_fract_z 
_atom_site_charge 
C1          C  0.02874082  0.95649542  0.08246518     0.02200
C2          C  0.02544550  0.44211658  0.09968261     0.02200
C3          C  0.48630327  0.45097454  0.10875440    -0.18300
C4          C  0.44513449  0.45647897  0.10033072     0.02200
C5          C  0.44380407  0.96725827  0.08292852     0.02200
C6          C  0.98771916  0.95873429  0.07342647    -0.18300
H7          H  0.98808340  0.96148732  0.05944440     0.04200
H8          H  0.48691034  0.44897330  0.12278097     0.04200
O9          O  0.28561939  0.43214153  0.02668208    -0.73000
O10         O  0.18991582  0.43347148  0.98996030    -0.74000
O11         O  0.28469916  0.43961086  0.98993835    -0.62600
O12         O  0.19117338  0.42597840  0.02676589    -0.71000
O13         O  0.18576789  0.02034389  0.03073865    -0.70600
O14         O  0.27936733  0.04114552  0.99438355    -0.61800
O15         O  0.18523407  0.03383018  0.99411287    -0.74300
O16         O  0.28002011  0.02746756  0.03102534    -0.73100
Cu17       Cu  0.23808929  0.43022334  0.00825747     1.04600
Cu18       Cu  0.23234546  0.03326353  0.01270519     1.04300
C19         C  0.29748934  0.98935486  0.03518754     0.93200
C20         C  0.17401889  0.99835017  0.98612014     0.92300
C21         C  0.29652383  0.00762534  0.98630378     0.84500
C22         C  0.17545184  0.98038393  0.03493956     0.90700
N23         N  0.16411956  0.49371870  0.18447282    -0.36700
N24         N  0.23106019  0.47722901  0.15820770    -0.57200
N25         N  0.30026463  0.48045851  0.18403875    -0.36700
N26         N  0.23462085  0.49541483  0.21110754    -0.57200
C27         C  0.13830014  0.47931537  0.17122634     0.26900
C28         C  0.13929704  0.49108316  0.19906591     0.26900
C29         C  0.32226327  0.46089583  0.17065741     0.26900
C30         C  0.32414675  0.47073833  0.19848874     0.26900
C31         C  0.19503041  0.48418740  0.14797231     0.35500
C32         C  0.26710539  0.47860364  0.14776193     0.35500
C33         C  0.19880294  0.51165547  0.22025892     0.35500
C34         C  0.27280427  0.50603909  0.21977852     0.35500
C35         C  0.09649055  0.46773792  0.17742553    -0.22000
C36         C  0.09708334  0.47506197  0.19497857    -0.22000
C37         C  0.35998642  0.43758514  0.17662591    -0.22000
C38         C  0.36074677  0.44306427  0.19429299    -0.22000
C39         C  0.20817062  0.48997408  0.13091751    -0.23000
C40         C  0.25411743  0.48672653  0.13080493    -0.23000
C41         C  0.21427399  0.53242227  0.23502381    -0.23000
C42         C  0.26091861  0.52948034  0.23460879    -0.23000
C43         C  0.15062831  0.47933203  0.15355703    -0.18400
C44         C  0.15253684  0.50579021  0.21571634    -0.18400
C45         C  0.31750591  0.49244007  0.21456471    -0.18400
C46         C  0.31080776  0.46708449  0.15312727    -0.18400
H47         H  0.06827498  0.45588173  0.17003630     0.14500
H48         H  0.06928287  0.46962374  0.20370276     0.14500
H49         H  0.38475044  0.41933615  0.16900105     0.14500
H50         H  0.38670449  0.43030549  0.20294258     0.14500
H51         H  0.19190870  0.00043680  0.12121872     0.12800
H52         H  0.28017926  0.99337995  0.12143173     0.12800
H53         H  0.19405418  0.54832538  0.24498316     0.12800
H54         H  0.28326905  0.54297905  0.24420116     0.12800
H55         H  0.19501261  0.50913187  0.18341430     0.26100
H56         H  0.27468597  0.50482426  0.18301007     0.26100
C57         C  0.02617737  0.48406099  0.93598964     0.02200
C58         C  0.02550361  0.48025139  0.91781368     0.02200
C59         C  0.48094027  0.50446269  0.90962016    -0.18300
C60         C  0.44162185  0.49737498  0.91892938     0.02200
C61         C  0.44341404  0.49514218  0.93713445     0.02200
C62         C  0.48551318  0.49547772  0.94532089    -0.18300
H63         H  0.99182666  0.00815370  0.96013480     0.04200
H64         H  0.47921948  0.50664424  0.89561761     0.04200
N65         N  0.30500264  0.47786555  0.83312328    -0.36700
N66         N  0.23675898  0.45898773  0.85873375    -0.57200
N67         N  0.16739668  0.47245500  0.83286678    -0.36700
N68         N  0.23538356  0.49201630  0.80658858    -0.57200
C69         C  0.32983614  0.47991093  0.84782533     0.26900
C70         C  0.33102587  0.49195920  0.81990801     0.26900
C71         C  0.14316679  0.47568618  0.84767922     0.26900
C72         C  0.14171196  0.49061285  0.82006248     0.26900
C73         C  0.27320750  0.45196734  0.86876674     0.35500
C74         C  0.20116325  0.44735802  0.86833300     0.35500
C75         C  0.27257781  0.49115461  0.79627952     0.35500
C76         C  0.19832410  0.48957307  0.79625563     0.35500
C77         C  0.37240531  0.49456194  0.84388228    -0.22000
C78         C  0.37348685  0.50139573  0.82634841    -0.22000
C79         C  0.10166274  0.49583403  0.84421673    -0.22000
C80         C  0.10072966  0.50526371  0.82682922    -0.22000
C81         C  0.26082832  0.43480135  0.88472286    -0.23000
C82         C  0.21509202  0.43153272  0.88439327    -0.23000
C83         C  0.25879302  0.48901440  0.77917056    -0.23000
C84         C  0.21209916  0.48788636  0.77916341    -0.23000
C85         C  0.31634818  0.46677166  0.86464142    -0.18400
C86         C  0.31847882  0.49420451  0.80211058    -0.18400
C87         C  0.15247005  0.49066231  0.80219834    -0.18400
C88         C  0.15661196  0.45929502  0.86414001    -0.18400
H89         H  0.40037338  0.49862074  0.85265281     0.14500
H90         H  0.40287690  0.51170417  0.81932026     0.14500
H91         H  0.07458239  0.50259689  0.85324194     0.14500
H92         H  0.07273385  0.52073873  0.81990912     0.14500
H93         H  0.28211927  0.42742268  0.89576789     0.12800
H94         H  0.19429769  0.42158473  0.89516277     0.12800
H95         H  0.28015511  0.48839926  0.76785250     0.12800
H96         H  0.19074287  0.48625713  0.76786505     0.12800
H97         H  0.27356659  0.46404755  0.83185150     0.26100
H98         H  0.19736385  0.45433041  0.83117436     0.26100
N99         N  0.99834548  0.18597330  0.68373858    -0.36700
N100        N  0.00547427  0.25389384  0.65684491    -0.57200
N101        N  0.00119173  0.32320264  0.68311107    -0.36700
N102        N  0.99479868  0.25495756  0.71058736    -0.57200
C103        C  0.99235355  0.16079824  0.66939287     0.26900
C104        C  0.98638339  0.16058361  0.69747202     0.26900
C105        C  0.01031409  0.34848703  0.66893245     0.26900
C106        C  0.00563373  0.34988921  0.69710449     0.26900
C107        C  0.00873702  0.21753201  0.64667243     0.35500
C108        C  0.00973555  0.28940188  0.64623253     0.35500
C109        C  0.99307337  0.21794152  0.72100639     0.35500
C110        C  0.99470986  0.29224903  0.72074862     0.35500
C111        C  0.97652803  0.11916925  0.67401502    -0.22000
C112        C  0.97228381  0.11914210  0.69164718    -0.22000
C113        C  0.02011491  0.39163498  0.67391087    -0.22000
C114        C  0.01772648  0.39245967  0.69158000    -0.22000
C115        C  0.01529041  0.22996931  0.62956828    -0.23000
C116        C  0.01567295  0.27556937  0.62927842    -0.23000
C117        C  0.99205277  0.23197448  0.73806437    -0.23000
C118        C  0.99254265  0.27863120  0.73789447    -0.23000
C119        C  0.00283564  0.17327141  0.65225360    -0.18400
C120        C  0.99044613  0.17207152  0.71522166    -0.18400
C121        C  0.99823458  0.33807274  0.71476461    -0.18400
C122        C  0.00999134  0.33428971  0.65150638    -0.18400
H123        H  0.96888610  0.09154189  0.66557077     0.14500
H124        H  0.96057884  0.09130008  0.69931769     0.14500
H125        H  0.02884277  0.41958223  0.66568834     0.14500
H126        H  0.02452628  0.42144013  0.69943964     0.14500
H127        H  0.01851938  0.20857455  0.61835656     0.12800
H128        H  0.02032305  0.29608223  0.61786447     0.12800
H129        H  0.99040486  0.21087180  0.74945681     0.12800
H130        H  0.99210983  0.30004307  0.74914716     0.12800
H131        H  0.01480116  0.21627090  0.68428043     0.26100
H132        H  0.98870886  0.29104766  0.68313554     0.26100
C133        C  0.01920565  0.04348539  0.59860597     0.02200
C134        C  0.01313437  0.04380052  0.58050654     0.02200
C135        C  0.00788439  0.50739889  0.57125676    -0.18300
C136        C  0.01119529  0.46587323  0.57982263     0.02200
C137        C  0.01792153  0.46510446  0.59781551     0.02200
C138        C  0.02029197  0.50519447  0.60683027    -0.18300
H139        H  0.02448171  0.50414350  0.62078049     0.04200
H140        H  0.00420576  0.50803571  0.55731077     0.04200
O141        O  0.05144996  0.30236163  0.52607479    -0.73000
O142        O  0.05233398  0.20579826  0.49011743    -0.74000
O143        O  0.05198154  0.30075412  0.48921455    -0.62600
O144        O  0.05150442  0.20726776  0.52698281    -0.71000
O145        O  0.49239104  0.21196433  0.52430029    -0.70600
O146        O  0.49333667  0.30706896  0.48778334    -0.61800
O147        O  0.49408145  0.21271105  0.48757798    -0.74300
O148        O  0.49202603  0.30596401  0.52459954    -0.73100
Cu149      Cu  0.05443077  0.25401847  0.50810615     1.04600
Cu150      Cu  0.49048146  0.25951669  0.50602457     1.04300
C151        C  0.01416762  0.31738711  0.53214911     0.93200
C152        C  0.01525518  0.19194803  0.48398952     0.92300
C153        C  0.01474921  0.31634426  0.48316467     0.84500
C154        C  0.01400386  0.19311949  0.53263315     0.90700
C155        C  0.48215551  0.50664189  0.75747232    -0.02600
C156        C  0.02634366  0.04798803  0.43438227     0.02200
C157        C  0.02982420  0.04810693  0.41619180     0.02200
C158        C  0.02547266  0.50517901  0.40788917    -0.18300
C159        C  0.02279809  0.46444737  0.41674329     0.02200
C160        C  0.01687466  0.46431412  0.43481264     0.02200
C161        C  0.01609621  0.50553508  0.44355327    -0.18300
H162        H  0.01266339  0.50572943  0.45750901     0.04200
H163        H  0.02871639  0.50497287  0.39390703     0.04200
N164        N  0.01812813  0.19098190  0.33081012    -0.36700
N165        N  0.03679411  0.25693805  0.35602554    -0.57200
N166        N  0.01222511  0.32712679  0.33188883    -0.36700
N167        N  0.99456780  0.26120934  0.30542867    -0.57200
C168        C  0.01782824  0.16584664  0.34551501     0.26900
C169        C  0.99746546  0.16712840  0.31845650     0.26900
C170        C  0.00166703  0.34480281  0.34751942     0.26900
C171        C  0.98533512  0.34792161  0.32011592     0.26900
C172        C  0.05163997  0.22093298  0.36500263     0.35500
C173        C  0.04639359  0.29284853  0.36558802     0.35500
C174        C  0.98891922  0.22495702  0.29521319     0.35500
C175        C  0.98707088  0.29848733  0.29553451     0.35500
C176        C  0.99707978  0.12561564  0.34236917    -0.22000
C177        C  0.98417791  0.12655178  0.32532517    -0.22000
C178        C  0.96691104  0.37618222  0.34574649    -0.22000
C179        C  0.95536709  0.37684258  0.32850306    -0.22000
C180        C  0.07276341  0.23403901  0.38007949    -0.23000
C181        C  0.06958763  0.27989402  0.38042445    -0.23000
C182        C  0.97577235  0.23915377  0.27886935    -0.23000
C183        C  0.97266247  0.28539605  0.27933203    -0.23000
C184        C  0.03731352  0.17756796  0.36152027    -0.18400
C185        C  0.99258618  0.17943650  0.30084200    -0.18400
C186        C  0.98990148  0.34329883  0.30193513    -0.18400
C187        C  0.02454651  0.33436038  0.36305478    -0.18400
H188        H  0.99182642  0.09835752  0.35137893     0.14500
H189        H  0.96613164  0.10074233  0.31875453     0.14500
H190        H  0.95135823  0.39631419  0.35578871     0.14500
H191        H  0.92930480  0.39781715  0.32262577     0.14500
H192        H  0.08575448  0.21289361  0.39042362     0.12800
H193        H  0.07939055  0.30068642  0.39114378     0.12800
H194        H  0.96690775  0.21851827  0.26798973     0.12800
H195        H  0.95896559  0.30647566  0.26912308     0.12800
H196        H  0.03544286  0.22043343  0.32870248     0.26100
H197        H  0.03953143  0.30574228  0.32908314     0.26100
C198        C  0.48391753  0.51388817  0.25814426    -0.02600
C199        C  0.98737499  0.47067389  0.27137250    -0.06200
C200        C  0.49080768  0.42895337  0.26284058    -0.17300
C201        C  0.50267285  0.38960096  0.27211383     0.11000
C202        C  0.99280631  0.38623861  0.29064760    -0.06100
C203        C  0.99297853  0.42858000  0.29874563    -0.17400
C204        C  0.98854251  0.46960532  0.28992333     0.11000
S205        S  0.53919029  0.35124463  0.26039017    -0.32300
S206        S  0.98127988  0.51605605  0.30459009    -0.32300
H207        H  0.93790224  0.03279586  0.29665368     0.29000
H208        H  0.05815395  0.33245003  0.27626831     0.29000
H209        H  0.49237185  0.42757504  0.24885427     0.19600
H210        H  0.99787253  0.43093275  0.31247939     0.19600
C211        C  0.99105456  0.14143284  0.28818663    -0.06200
C212        C  0.45970365  0.13507507  0.28023871    -0.17300
C213        C  0.45257108  0.09626704  0.27031726     0.11000
C214        C  0.98210366  0.05907056  0.26914134    -0.06100
C215        C  0.02252384  0.07062591  0.27771553    -0.17400
C216        C  0.02768631  0.11098577  0.28654088     0.11000
S217        S  0.39866940  0.09541464  0.25960135    -0.32300
S218        S  0.08196589  0.12089380  0.29605567    -0.32300
H219        H  0.07886010  0.16796999  0.29495692     0.29000
H220        H  0.39015017  0.14204749  0.25927273     0.29000
H221        H  0.43229193  0.15902039  0.28226045     0.19600
H222        H  0.05086062  0.04719678  0.27789458     0.19600
C223        C  0.02665629  0.42378288  0.40610044    -0.06200
C224        C  0.50340630  0.40070704  0.40298969    -0.17300
C225        C  0.50221389  0.36954802  0.38952443     0.11000
C226        C  0.02308979  0.36559579  0.37779243    -0.06100
C227        C  0.06216397  0.38921518  0.38121347    -0.17400
C228        C  0.06487409  0.41699335  0.39553518     0.11000
S229        S  0.45357610  0.33462639  0.38818904    -0.32300
S230        S  0.11741071  0.44453368  0.39926869    -0.32300
H231        H  0.11785725  0.95813172  0.41392225     0.29000
H232        H  0.47322643  0.29975239  0.37846230     0.29000
H233        H  0.47450592  0.40481115  0.41140744     0.19600
H234        H  0.09109423  0.38526368  0.37279217     0.19600
C235        C  0.03654189  0.14551008  0.37620302    -0.06200
C236        C  0.51312815  0.14679713  0.38581996    -0.17300
C237        C  0.50985450  0.11713243  0.39978282     0.11000
C238        C  0.03241748  0.08846229  0.40523197    -0.06100
C239        C  0.07328938  0.09490702  0.39657133    -0.17400
C240        C  0.07571170  0.12269256  0.38206141     0.11000
S241        S  0.45636350  0.11473091  0.41069668    -0.32300
S242        S  0.12957347  0.12719667  0.37155211    -0.32300
H243        H  0.11306155  0.13787246  0.35498398     0.29000
H244        H  0.44765010  0.56746986  0.41496539     0.29000
H245        H  0.48451439  0.16835857  0.38250800     0.19600
H246        H  0.10300105  0.07565699  0.40047435     0.19600
C247        C  0.01421743  0.35083658  0.46923724    -0.06200
C248        C  0.49258096  0.38524731  0.46712524    -0.17300
C249        C  0.49062288  0.42045559  0.45517732     0.11000
C250        C  0.01275675  0.42242378  0.44509771    -0.06100
C251        C  0.04852455  0.39087160  0.44527585    -0.17400
C252        C  0.04922136  0.35458331  0.45694475     0.11000
S253        S  0.44011020  0.45524910  0.45474826    -0.32300
S254        S  0.09426724  0.31299439  0.45556139    -0.32300
H255        H  0.11169674  0.32749514  0.43963498     0.29000
H256        H  0.44279111  0.46680830  0.43713496     0.29000
H257        H  0.46467260  0.38135773  0.47596045     0.19600
H258        H  0.07661024  0.39543949  0.43661497     0.19600
C259        C  0.01606997  0.15690771  0.47038092    -0.06200
C260        C  0.05529610  0.15117753  0.46037123    -0.17300
C261        C  0.05937770  0.11716394  0.44801409     0.11000
C262        C  0.02262688  0.08919249  0.44490779    -0.06100
C263        C  0.49733618  0.09952911  0.45316032    -0.17400
C264        C  0.49454383  0.13274945  0.46576385     0.11000
S265        S  0.11320163  0.11001526  0.43753174    -0.32300
S266        S  0.44354705  0.13506713  0.47833467    -0.32300
H267        H  0.46624820  0.13472457  0.49431161     0.29000
H268        H  0.11137729  0.06337284  0.43528901     0.29000
H269        H  0.08373788  0.17249400  0.46254890     0.19600
H270        H  0.46887223  0.07800834  0.45125956     0.19600
C271        C  0.01335165  0.35230279  0.54585225    -0.06200
C272        C  0.48594036  0.37684785  0.54803827    -0.17300
C273        C  0.48212057  0.41073476  0.56036970     0.11000
C274        C  0.00952873  0.42439021  0.56949665    -0.06100
C275        C  0.04911294  0.39859978  0.56754987    -0.17400
C276        C  0.05131428  0.36235638  0.55614963     0.11000
S277        S  0.42760740  0.43765319  0.56309715    -0.32300
S278        S  0.10334239  0.33025628  0.55577726    -0.32300
H279        H  0.08176427  0.28885852  0.55623740     0.29000
H280        H  0.43424512  0.45143650  0.58024069     0.29000
H281        H  0.45653644  0.36928392  0.54041295     0.19600
H282        H  0.07886038  0.40726798  0.57477197     0.19600
C283        C  0.00865654  0.08585013  0.57017837    -0.06200
C284        C  0.04354989  0.11667779  0.57098863    -0.17300
C285        C  0.04590648  0.15267961  0.55925929     0.11000
C286        C  0.01267350  0.15787941  0.54624880    -0.06100
C287        C  0.48818185  0.13642552  0.54570978    -0.17400
C288        C  0.48410557  0.10176088  0.55772833     0.11000
S289        S  0.09136900  0.19144380  0.56122739    -0.32300
S290        S  0.43237209  0.07122347  0.55716556    -0.32300
H291        H  0.43617043  0.05076944  0.57344650     0.29000
H292        H  0.10927988  0.17425133  0.57680612     0.29000
H293        H  0.07021736  0.11125317  0.58034428     0.19600
H294        H  0.46079407  0.14258893  0.53669518     0.19600
C295        C  0.01182468  0.36817158  0.63751086    -0.06200
C296        C  0.05396995  0.38228247  0.63183784    -0.17300
C297        C  0.05746679  0.41058422  0.61743683     0.11000
C298        C  0.01819033  0.42421972  0.60845146    -0.06100
C299        C  0.49911965  0.39864708  0.61234583    -0.17400
C300        C  0.49981232  0.36959767  0.62659770     0.11000
S301        S  0.11167191  0.43076342  0.61087949    -0.32300
S302        S  0.45131208  0.33521450  0.62980131    -0.32300
H303        H  0.45545976  0.32955117  0.64775337     0.29000
H304        H  0.13695956  0.40869892  0.62387711     0.29000
H305        H  0.08388461  0.37107826  0.63874700     0.19600
H306        H  0.46906713  0.40147757  0.60445383     0.19600
C307        C  0.00700269  0.13837492  0.63885564    -0.06200
C308        C  0.49268116  0.13898834  0.62886726    -0.17300
C309        C  0.97113324  0.09614546  0.61612136     0.11000
C310        C  0.01389022  0.08284416  0.60977124    -0.06100
C311        C  0.05271050  0.09786900  0.61800094    -0.17400
C312        C  0.04969764  0.12461991  0.63267716     0.11000
S313        S  0.43621280  0.10051062  0.60551122    -0.32300
S314        S  0.10136303  0.14039975  0.64297656    -0.32300
H315        H  0.08390951  0.14219781  0.65984870     0.29000
H316        H  0.44202288  0.05360348  0.60485740     0.29000
H317        H  0.46229719  0.15618914  0.63325122     0.19600
H318        H  0.08553648  0.08615366  0.61361926     0.19600
C319        C  0.99504671  0.37788327  0.72702269    -0.06200
C320        C  0.45893674  0.40226406  0.72715870    -0.17300
C321        C  0.45347553  0.44550745  0.73459171     0.11000
C322        C  0.48887839  0.46482935  0.74448123    -0.06100
C323        C  0.02889534  0.43315812  0.74615894    -0.17400
C324        C  0.03124383  0.39161498  0.73738701     0.11000
S325        S  0.40179946  0.47548901  0.73002602    -0.32300
S326        S  0.08264593  0.35865825  0.73946431    -0.32300
H327        H  0.08198355  0.33958676  0.72290883     0.29000
H328        H  0.37826865  0.44025165  0.72245924     0.29000
H329        H  0.43146479  0.38794329  0.72004088     0.19600
H330        H  0.05896159  0.44230949  0.75289947     0.19600
C331        C  0.98999365  0.13241409  0.72772259    -0.06200
C332        C  0.46080660  0.12812001  0.73642463    -0.17300
C333        C  0.45191164  0.08819597  0.74574022     0.11000
C334        C  0.48502197  0.05141703  0.74644798    -0.06100
C335        C  0.01667425  0.05636261  0.73576508    -0.17400
C336        C  0.02270881  0.09712793  0.72680227     0.11000
S337        S  0.39550805  0.09003504  0.75447109    -0.32300
S338        S  0.07385121  0.10208928  0.71446714    -0.32300
H339        H  0.07577966  0.14909189  0.71532165     0.29000
H340        H  0.38480178  0.04521035  0.75240259     0.29000
H341        H  0.43556849  0.15496289  0.73611335     0.19600
H342        H  0.04359009  0.03134459  0.73501451     0.19600
C343        C  0.35690064  0.49873714  0.78937873    -0.06200
C344        C  0.37567830  0.45961894  0.78214406    -0.17300
C345        C  0.41744436  0.45913021  0.77333719     0.11000
C346        C  0.44048637  0.50026992  0.77007308    -0.06100
C347        C  0.43685052  0.03780949  0.78346920    -0.17400
C348        C  0.39578597  0.04380449  0.79241639     0.11000
S349        S  0.44362728  0.40423569  0.77062612    -0.32300
S350        S  0.38990368  0.09316550  0.80570077    -0.32300
H351        H  0.34305045  0.09817243  0.80368938     0.29000
H352        H  0.40374717  0.37979651  0.77027142     0.29000
H353        H  0.35916607  0.42832095  0.78475382     0.19600
H354        H  0.46203016  0.06264082  0.78531416     0.19600
C355        C  0.11248419  0.49311425  0.78991973    -0.06200
C356        C  0.09800059  0.04847852  0.78171710    -0.17300
C357        C  0.05567181  0.05097147  0.77336842     0.11000
C358        C  0.02733728  0.50628119  0.77161025    -0.06100
C359        C  0.03716317  0.46778463  0.78191342    -0.17400
C360        C  0.07902442  0.46005263  0.79015280     0.11000
S361        S  0.03906221  0.10856200  0.76862385    -0.32300
S362        S  0.08758711  0.40669925  0.80091777    -0.32300
H363        H  0.13472330  0.40541509  0.79945810     0.29000
H364        H  0.99462301  0.10680354  0.77412697     0.29000
H365        H  0.11659306  0.07896179  0.78353293     0.19600
H366        H  0.01319873  0.44135760  0.78250615     0.19600
C367        C  0.40139249  0.48857021  0.90849429    -0.06200
C368        C  0.39824769  0.44528385  0.90160261    -0.17300
C369        C  0.37199019  0.43730745  0.88701362     0.11000
C370        C  0.34755653  0.47325150  0.87930919    -0.06100
C371        C  0.36792361  0.07280705  0.88504865    -0.17400
C372        C  0.39499627  0.07138018  0.89977587     0.11000
S373        S  0.37161717  0.38091888  0.87870270    -0.32300
S374        S  0.42172188  0.12219381  0.90612098    -0.32300
H375        H  0.41472174  0.11413534  0.92375888     0.29000
H376        H  0.36315915  0.39277648  0.86138619     0.29000
H377        H  0.41897804  0.41814742  0.90690128     0.19600
H378        H  0.36279019  0.10428236  0.87817293     0.19600
C379        C  0.06566094  0.47276131  0.90691387    -0.06200
C380        C  0.06979643  0.43143342  0.89832374    -0.17300
C381        C  0.09844607  0.42597862  0.88411578     0.11000
C382        C  0.12442753  0.46238878  0.87867287    -0.06100
C383        C  0.09126262  0.06787999  0.88134972    -0.17400
C384        C  0.06151195  0.06522957  0.89523343     0.11000
S385        S  0.09961676  0.37221646  0.87346842    -0.32300
S386        S  0.01811938  0.10862542  0.89655026    -0.32300
H387        H  0.00467502  0.10094639  0.91367436     0.29000
H388        H  0.11737452  0.38620111  0.85758135     0.29000
H389        H  0.04839789  0.40410025  0.90206248     0.19600
H390        H  0.08776302  0.09539852  0.87220130     0.19600
C391        C  0.43992733  0.50573924  0.24680819    -0.06200
C392        C  0.43959478  0.01893809  0.23037711    -0.17300
C393        C  0.39919713  0.02206826  0.22098159     0.11000
C394        C  0.35905681  0.49964513  0.22570858    -0.06100
C395        C  0.35906772  0.48744256  0.24317734    -0.17400
C396        C  0.39706266  0.49279847  0.25392476     0.11000
S397        S  0.40155041  0.04986854  0.20020693    -0.32300
S398        S  0.38691679  0.48476762  0.27670115    -0.32300
H399        H  0.34023108  0.49369472  0.27635681     0.29000
H400        H  0.35646665  0.06524340  0.20031838     0.29000
H401        H  0.46952364  0.02602591  0.22329328     0.19600
H402        H  0.32856232  0.47428638  0.24863732     0.19600
C403        C  0.11510127  0.51253096  0.22871877    -0.06200
C404        C  0.08181224  0.04653450  0.22694694    -0.17300
C405        C  0.04068673  0.04847293  0.23622015     0.11000
C406        C  0.03076366  0.51404945  0.24773037    -0.06100
C407        C  0.06758721  0.48389897  0.25167881    -0.17400
C408        C  0.10770919  0.48170165  0.24213303     0.11000
S409        S  0.00421054  0.09723106  0.23259435    -0.32300
S410        S  0.14790343  0.43760135  0.24757681    -0.32300
H411        H  0.15938786  0.42690128  0.23044206     0.29000
H412        H  0.02926121  0.11742495  0.21939545     0.29000
H413        H  0.08816980  0.07108943  0.21694906     0.19600
H414        H  0.06674806  0.46143655  0.26260200     0.19600
C415        C  0.32938748  0.01508852  0.97226111    -0.06200
C416        C  0.35821838  0.05149832  0.97348208    -0.17300
C417        C  0.39332809  0.05726321  0.96169424     0.11000
C418        C  0.40271358  0.49370615  0.94807763    -0.06100
C419        C  0.37477832  0.45665864  0.94706342    -0.17400
C420        C  0.33847368  0.45200414  0.95835165     0.11000
S421        S  0.42830564  0.10514185  0.96507224    -0.32300
S422        S  0.30217348  0.40556729  0.95471998    -0.32300
H423        H  0.26293831  0.43191488  0.95725143     0.29000
H424        H  0.45066762  0.10451904  0.94917090     0.29000
H425        H  0.35437278  0.07493333  0.98407027     0.19600
H426        H  0.38154769  0.43085183  0.93755899     0.19600
C427        C  0.06803644  0.48280778  0.94627096    -0.06200
C428        C  0.09120781  0.44168508  0.94835607    -0.17300
C429        C  0.12598592  0.43638611  0.96049344     0.11000
C430        C  0.14047331  0.00182563  0.97179659    -0.06100
C431        C  0.12195864  0.04455838  0.96772144    -0.17400
C432        C  0.08852295  0.05028286  0.95514305     0.11000
S433        S  0.15132407  0.38112976  0.96235906    -0.32300
S434        S  0.06548102  0.10585129  0.95154011    -0.32300
H435        H  0.06333238  0.10069956  0.93355679     0.29000
H436        H  0.19535451  0.39652258  0.96097068     0.29000
H437        H  0.08083777  0.41293156  0.94095417     0.19600
H438        H  0.13287966  0.07394255  0.97458588     0.19600
C439        C  0.40575915  0.46187281  0.11165649    -0.02600
C440        C  0.38175959  0.42339905  0.11588984    -0.17300
C441        C  0.35143796  0.42339526  0.12968375     0.11000
C442        C  0.34574016  0.46252156  0.13970317    -0.06100
C443        C  0.37556911  0.00379357  0.13820848    -0.17400
C444        C  0.40368457  0.00456317  0.12382659     0.11000
S445        S  0.32119882  0.37260297  0.13370052    -0.32300
S446        S  0.43552552  0.05416835  0.12009536    -0.32300
H447        H  0.41715467  0.05998722  0.10349762     0.29000
H448        H  0.30893540  0.38131644  0.15088798     0.29000
H449        H  0.38823431  0.39249328  0.10893393     0.19600
H450        H  0.37261531  0.03323682  0.14633199     0.19600
C451        C  0.06467923  0.45074184  0.11072648    -0.06200
C452        C  0.07497339  0.00446083  0.11716387    -0.17300
C453        C  0.10169571  0.01350571  0.13151439     0.11000
C454        C  0.11690475  0.47027733  0.14001141    -0.06100
C455        C  0.11253911  0.42582333  0.13447866    -0.17400
C456        C  0.08666790  0.41578272  0.11996302     0.11000
S457        S  0.11075845  0.07156199  0.13668787    -0.32300
S458        S  0.08156710  0.35787567  0.11404877    -0.32300
H459        H  0.08082338  0.36690416  0.09623313     0.29000
H460        H  0.12011891  0.06520603  0.15433491     0.29000
H461        H  0.05807033  0.03217018  0.11052784     0.19600
H462        H  0.13006404  0.39890872  0.14136322     0.19600
C463        C  0.33050288  0.98615442  0.04943321    -0.06200
C464        C  0.36131001  0.02062432  0.05132308    -0.17300
C465        C  0.39673333  0.01692039  0.06315744     0.11000
C466        C  0.40172457  0.97755077  0.07340311    -0.06100
C467        C  0.37251465  0.43108234  0.07118388    -0.17400
C468        C  0.33648125  0.43159592  0.05954100     0.11000
S469        S  0.43551840  0.06276459  0.06359406    -0.32300
S470        S  0.29916058  0.38487025  0.06032759    -0.32300
H471        H  0.25985390  0.41115154  0.05754097     0.29000
H472        H  0.45860610  0.05130454  0.07884275     0.29000
H473        H  0.35893638  0.04993317  0.04299552     0.19600
H474        H  0.37854395  0.40159848  0.07913372     0.19600
C475        C  0.14210160  0.97243947  0.04881047    -0.06200
C476        C  0.11410943  0.41602617  0.04775284    -0.17300
C477        C  0.07872427  0.41028410  0.05937842     0.11000
C478        C  0.07084642  0.95845542  0.07229837    -0.06100
C479        C  0.09704950  0.99682984  0.07342239    -0.17400
C480        C  0.13325672  0.00349627  0.06224199     0.11000
S481        S  0.04816528  0.35875284  0.05782170    -0.32300
S482        S  0.16721666  0.05170094  0.06614007    -0.32300
H483        H  0.20824021  0.02901530  0.06264180     0.29000
H484        H  0.02688914  0.36041443  0.07399547     0.29000
H485        H  0.12119909  0.38986799  0.03840216     0.19600
H486        H  0.08861451  0.02255412  0.08273550     0.19600
C487        C  0.02571920  0.44415774  0.08145604     0.02200
C488        C  0.02799207  0.95337783  0.10069943     0.02200
C489        C  0.48783030  0.95714852  0.10904563    -0.18300
C490        C  0.44594738  0.96207498  0.10109143     0.02200
C491        C  0.44402929  0.46113132  0.08215970     0.02200
C492        C  0.98456166  0.44710681  0.07255944    -0.18300
H493        H  0.98472157  0.44909578  0.05855761     0.04200
H494        H  0.48956726  0.95522623  0.12305865     0.04200
O495        O  0.28693344  0.95401392  0.02701794    -0.73000
O496        O  0.19176729  0.96056325  0.99044047    -0.74000
O497        O  0.28591966  0.96770205  0.99044137    -0.62600
O498        O  0.19313748  0.94695668  0.02696604    -0.71000
O499        O  0.18419380  0.49988564  0.02867648    -0.70600
O500        O  0.27914586  0.51353641  0.99239790    -0.61800
O501        O  0.18500694  0.50731369  0.99198191    -0.74300
O502        O  0.27867483  0.50603183  0.02909354    -0.73100
Cu503      Cu  0.23973048  0.95479549  0.00857459     1.04600
Cu504      Cu  0.23151061  0.50923707  0.01060690     1.04300
C505        C  0.29651106  0.46868141  0.03397629     0.93200
C506        C  0.17282801  0.47093908  0.98486602     0.92300
C507        C  0.29636718  0.47872475  0.98517368     0.84500
C508        C  0.17332828  0.46079841  0.03377515     0.90700
N509        N  0.16638729  0.99701585  0.18601185    -0.36700
N510        N  0.23458331  0.98195559  0.15993185    -0.57200
N511        N  0.30242350  0.98469022  0.18608317    -0.36700
N512        N  0.23534148  0.99830856  0.21298128    -0.57200
C513        C  0.14131863  0.98322422  0.17246901     0.26900
C514        C  0.14101169  0.99294221  0.20041920     0.26900
C515        C  0.32553988  0.96581205  0.17280916     0.26900
C516        C  0.32586879  0.97546309  0.20066583     0.26900
C517        C  0.19893087  0.98947638  0.14955042     0.35500
C518        C  0.27100664  0.98317325  0.14965832     0.35500
C519        C  0.19905293  0.01329034  0.22214242     0.35500
C520        C  0.27299437  0.00902102  0.22192099     0.35500
C521        C  0.09949687  0.97047478  0.17829464    -0.22000
C522        C  0.09930924  0.97642661  0.19592024    -0.22000
C523        C  0.36365221  0.94358156  0.17898870    -0.22000
C524        C  0.36354264  0.94906001  0.19665204    -0.22000
C525        C  0.21270896  0.99546218  0.13257834    -0.23000
C526        C  0.25861879  0.99176462  0.13267168    -0.23000
C527        C  0.21368513  0.03323011  0.23720893    -0.23000
C528        C  0.26035443  0.03106584  0.23697674    -0.23000
C529        C  0.15426683  0.98481391  0.15488335    -0.18400
C530        C  0.15316161  0.00697717  0.21727199    -0.18400
C531        C  0.31795939  0.99671007  0.21675029    -0.18400
C532        C  0.31455751  0.97145985  0.15520089    -0.18400
H533        H  0.07177376  0.95866936  0.17062260     0.14500
H534        H  0.07130741  0.96985916  0.20442053     0.14500
H535        H  0.38923706  0.92607517  0.17150765     0.14500
H536        H  0.38950930  0.93703805  0.20544642     0.14500
H537        H  0.18691005  0.49459361  0.11966134     0.12800
H538        H  0.27531578  0.48820067  0.11945939     0.12800
H539        H  0.19290614  0.04798050  0.24725895     0.12800
H540        H  0.28224860  0.04399936  0.24684599     0.12800
H541        H  0.19698567  0.01310419  0.18524635     0.26100
H542        H  0.27626317  0.00839040  0.18498272     0.26100
C543        C  0.02982792  0.01462192  0.93660747     0.02200
C544        C  0.02733793  0.01747485  0.91840026     0.02200
C545        C  0.48321036  0.01861418  0.91081366    -0.18300
C546        C  0.44266164  0.02424083  0.91963937     0.02200
C547        C  0.44239046  0.02355828  0.93793428     0.02200
C548        C  0.48357937  0.01811933  0.94672131    -0.18300
H549        H  0.98568273  0.48959334  0.95895565     0.04200
H550        H  0.48306713  0.01837179  0.89677145     0.04200
N551        N  0.30500957  0.02806380  0.83314430    -0.36700
N552        N  0.23599088  0.04399875  0.85846642    -0.57200
N553        N  0.16743894  0.02918907  0.83277010    -0.36700
N554        N  0.23707616  0.01307669  0.80652602    -0.57200
C555        C  0.32843827  0.02189600  0.84804504     0.26900
C556        C  0.32997552  0.00972775  0.82030494     0.26900
C557        C  0.14282143  0.02677749  0.84751961     0.26900
C558        C  0.14167982  0.01410676  0.81968838     0.26900
C559        C  0.27186707  0.05453458  0.86804300     0.35500
C560        C  0.19966730  0.05492347  0.86798076     0.35500
C561        C  0.27433491  0.01623813  0.79633906     0.35500
C562        C  0.20001322  0.01562587  0.79614213     0.35500
C563        C  0.36872115  0.99941713  0.84461931    -0.22000
C564        C  0.36971096  0.99172439  0.82711157    -0.22000
C565        C  0.10072884  0.01075575  0.84376559    -0.22000
C566        C  0.09960268  0.00363142  0.82627342    -0.22000
C567        C  0.25825120  0.07358028  0.88356982    -0.23000
C568        C  0.21227973  0.07387226  0.88350508    -0.23000
C569        C  0.26079112  0.02022308  0.77924634    -0.23000
C570        C  0.21404907  0.01954879  0.77911069    -0.23000
C571        C  0.31548447  0.03850620  0.86443812    -0.18400
C572        C  0.32007340  0.01337490  0.80243808    -0.18400
C573        C  0.15405742  0.01235367  0.80187526    -0.18400
C574        C  0.15641159  0.04039198  0.86420591    -0.18400
H575        H  0.39508414  0.99030346  0.85371599     0.14500
H576        H  0.39702344  0.97550046  0.82011394     0.14500
H577        H  0.07313356  0.00576847  0.85262874     0.14500
H578        H  0.07039534  0.99237538  0.81940981     0.14500
H579        H  0.27902890  0.08340966  0.89432057     0.12800
H580        H  0.19070941  0.08414190  0.89410430     0.12800
H581        H  0.28231452  0.02284247  0.76803190     0.12800
H582        H  0.19283473  0.02167088  0.76775370     0.12800
H583        H  0.27649698  0.04849302  0.83140235     0.26100
H584        H  0.19836605  0.04415521  0.83135259     0.26100
N585        N  0.01717548  0.68562126  0.68500519    -0.36700
N586        N  0.03580801  0.75253847  0.65894826    -0.57200
N587        N  0.02481409  0.82322999  0.68447439    -0.36700
N588        N  0.00400657  0.75589086  0.71112950    -0.57200
C589        C  0.01201208  0.66138767  0.67034500     0.26900
C590        C  0.99971318  0.66159441  0.69816583     0.26900
C591        C  0.02595816  0.84787310  0.66965983     0.26900
C592        C  0.01094110  0.85098983  0.69732572     0.26900
C593        C  0.04313518  0.71569874  0.64929850     0.35500
C594        C  0.04833976  0.78740553  0.64912363     0.35500
C595        C  0.00316849  0.71896647  0.72167057     0.35500
C596        C  0.00481749  0.79330814  0.72124512     0.35500
C597        C  0.99134982  0.62147672  0.67427678    -0.22000
C598        C  0.98357549  0.62157647  0.69177620    -0.22000
C599        C  0.01373773  0.89187845  0.67314742    -0.22000
C600        C  0.00500656  0.89411135  0.69050851    -0.22000
C601        C  0.06107314  0.72719631  0.63336817    -0.23000
C602        C  0.06458959  0.77270366  0.63330468    -0.23000
C603        C  0.00268145  0.73322610  0.73870022    -0.23000
C604        C  0.00336000  0.77988073  0.73843126    -0.23000
C605        C  0.02787649  0.67296557  0.65367910    -0.18400
C606        C  0.00092477  0.67296005  0.71597454    -0.18400
C607        C  0.00549660  0.83926547  0.71513777    -0.18400
C608        C  0.03863350  0.83237889  0.65304445    -0.18400
H609        H  0.98331444  0.59466613  0.66550427     0.14500
H610        H  0.96807885  0.59488400  0.69900492     0.14500
H611        H  0.01198087  0.91981897  0.66416242     0.14500
H612        H  0.99576461  0.92474158  0.69712988     0.14500
H613        H  0.06882310  0.70552935  0.62255060     0.12800
H614        H  0.07557966  0.79284535  0.62249173     0.12800
H615        H  0.00142844  0.71224966  0.75013812     0.12800
H616        H  0.00295622  0.80146281  0.74963770     0.12800
H617        H  0.03623069  0.71412237  0.68638484     0.26100
H618        H  0.03630398  0.79039126  0.68603295     0.26100
C619        C  0.01639171  0.54657332  0.59847267     0.02200
C620        C  0.00958202  0.54805858  0.58038150     0.02200
C621        C  0.01474286  0.00262350  0.57176475    -0.18300
C622        C  0.02130573  0.96183658  0.58069385     0.02200
C623        C  0.03020564  0.96246257  0.59858776     0.02200
C624        C  0.02826564  0.00321885  0.60725392    -0.18300
H625        H  0.03245484  0.00348763  0.62120479     0.04200
H626        H  0.01070536  0.00217008  0.55783782     0.04200
O627        O  0.05763849  0.80197766  0.52514642    -0.73000
O628        O  0.05336667  0.70591127  0.48902874    -0.74000
O629        O  0.05672541  0.80075897  0.48815021    -0.62600
O630        O  0.05415322  0.70739568  0.52591251    -0.71000
O631        O  0.48108453  0.71222597  0.52447951    -0.70600
O632        O  0.48330893  0.80903589  0.48823286    -0.61800
O633        O  0.48209519  0.71448037  0.48761807    -0.74300
O634        O  0.48288385  0.80705300  0.52516495    -0.73100
Cu635      Cu  0.05810158  0.75391667  0.50702518     1.04600
Cu636      Cu  0.47978092  0.76085110  0.50637597     1.04300
C637        C  0.02100339  0.81769029  0.53153884     0.93200
C638        C  0.01554149  0.69333924  0.48312955     0.92300
C639        C  0.01984077  0.81753339  0.48223692     0.84500
C640        C  0.01633163  0.69497636  0.53186066     0.90700
C641        C  0.48703287  0.00771390  0.75868848    -0.02600
C642        C  0.02026892  0.54650787  0.43466240     0.02200
C643        C  0.02503899  0.54609392  0.41650546     0.02200
C644        C  0.03119409  0.00747068  0.40739090    -0.18300
C645        C  0.02996159  0.96645535  0.41608888     0.02200
C646        C  0.02486304  0.96577712  0.43419115     0.02200
C647        C  0.02412605  0.00666922  0.44312752    -0.18300
H648        H  0.02131770  0.00635831  0.45710566     0.04200
H649        H  0.03344580  0.00777542  0.39337813     0.04200
N650        N  0.02183670  0.68980637  0.33123428    -0.36700
N651        N  0.04059405  0.75544288  0.35657169    -0.57200
N652        N  0.01593291  0.82626453  0.33238410    -0.36700
N653        N  0.99790012  0.76064123  0.30594938    -0.57200
C654        C  0.02143695  0.66446988  0.34590703     0.26900
C655        C  0.00119303  0.66613114  0.31880789     0.26900
C656        C  0.00540386  0.84330666  0.34811005     0.26900
C657        C  0.98848460  0.84710989  0.32079925     0.26900
C658        C  0.05479910  0.71932234  0.36563522     0.35500
C659        C  0.05012781  0.79128573  0.36618153     0.35500
C660        C  0.99196512  0.72446032  0.29571262     0.35500
C661        C  0.98976582  0.79801746  0.29615203     0.35500
C662        C  0.00072837  0.62429056  0.34265287    -0.22000
C663        C  0.98792927  0.62545971  0.32559576    -0.22000
C664        C  0.97003350  0.87407392  0.34660560    -0.22000
C665        C  0.95807690  0.87504337  0.32942209    -0.22000
C666        C  0.07543002  0.73224393  0.38083627    -0.23000
C667        C  0.07265194  0.77818342  0.38115254    -0.23000
C668        C  0.97813668  0.73883265  0.27946615    -0.23000
C669        C  0.97481174  0.78503465  0.28001692    -0.23000
C670        C  0.04036102  0.67605428  0.36204798    -0.18400
C671        C  0.99586353  0.67881569  0.30122569    -0.18400
C672        C  0.99228897  0.84283179  0.30259398    -0.18400
C673        C  0.02876980  0.83298950  0.36352324    -0.18400
H674        H  0.99526858  0.59699968  0.35162985     0.14500
H675        H  0.96969368  0.59985808  0.31899387     0.14500
H676        H  0.95422395  0.89345763  0.35680440     0.14500
H677        H  0.93125815  0.89544793  0.32375584     0.14500
H678        H  0.08786887  0.71086378  0.39121550     0.12800
H679        H  0.08217452  0.79902613  0.39190284     0.12800
H680        H  0.96895076  0.71834958  0.26858799     0.12800
H681        H  0.96064674  0.80615494  0.26991122     0.12800
H682        H  0.03890720  0.71943823  0.32920801     0.26100
H683        H  0.04343378  0.80526174  0.32943422     0.26100
C684        C  0.48618716  0.01560273  0.25913288    -0.02600
C685        C  0.98602948  0.97005651  0.27182294    -0.06200
C686        C  0.49144330  0.93038562  0.26286276    -0.17300
C687        C  0.49994963  0.88984865  0.27181310     0.11000
C688        C  0.99358854  0.88594425  0.29129972    -0.06100
C689        C  0.99204231  0.92846033  0.29931361    -0.17400
C690        C  0.98658388  0.96926307  0.29037041     0.11000
S691        S  0.53499938  0.85000054  0.26020009    -0.32300
S692        S  0.97681006  0.01584585  0.30478846    -0.32300
H693        H  0.94251423  0.53479962  0.29694878     0.29000
H694        H  0.06029043  0.83364389  0.27699673     0.29000
H695        H  0.49313800  0.92976750  0.24887027     0.19600
H696        H  0.99638795  0.93127065  0.31305103     0.19600
C697        C  0.99386524  0.64107720  0.28842595    -0.06200
C698        C  0.45159919  0.63393140  0.27791923    -0.17300
C699        C  0.44731006  0.59505560  0.26769143     0.11000
C700        C  0.98432258  0.55967832  0.26880358    -0.06100
C701        C  0.02501562  0.57077264  0.27727294    -0.17400
C702        C  0.03037818  0.61056931  0.28647614     0.11000
S703        S  0.39759934  0.59470681  0.25419731    -0.32300
S704        S  0.08468211  0.61951083  0.29612412    -0.32300
H705        H  0.08207075  0.66663283  0.29527105     0.29000
H706        H  0.37452979  0.63236977  0.26097019     0.29000
H707        H  0.42374147  0.65769947  0.27910362     0.19600
H708        H  0.05325605  0.54722050  0.27720132     0.19600
C709        C  0.03333339  0.92604994  0.40528823    -0.06200
C710        C  0.49401823  0.90662075  0.40179537    -0.17300
C711        C  0.48892798  0.87653954  0.38813061     0.11000
C712        C  0.02840256  0.86504684  0.37795490    -0.06100
C713        C  0.06690853  0.89035783  0.38023242    -0.17400
C714        C  0.07023901  0.91991978  0.39398590     0.11000
S715        S  0.43569246  0.84916231  0.38622571    -0.32300
S716        S  0.12178777  0.95025636  0.39607315    -0.32300
H717        H  0.11040571  0.45286800  0.41694523     0.29000
H718        H  0.45176621  0.81078471  0.37753971     0.29000
H719        H  0.46546477  0.91484606  0.40997893     0.19600
H720        H  0.09478517  0.88663952  0.37129005     0.19600
C721        C  0.03806523  0.64416754  0.37678711    -0.06200
C722        C  0.49851365  0.64516203  0.38493138    -0.17300
C723        C  0.49687468  0.61655096  0.39927342     0.11000
C724        C  0.03046059  0.58616584  0.40546556    -0.06100
C725        C  0.07131317  0.58935712  0.39643402    -0.17400
C726        C  0.07540436  0.61765843  0.38211162     0.11000
S727        S  0.44396012  0.61313458  0.41052423    -0.32300
S728        S  0.12885431  0.61807790  0.37112621    -0.32300
H729        H  0.11187379  0.62905761  0.35465413     0.29000
H730        H  0.45777446  0.06846241  0.41424478     0.29000
H731        H  0.46901153  0.66532271  0.38149017     0.19600
H732        H  0.09949753  0.56744849  0.39995955     0.19600
C733        C  0.01999663  0.85189923  0.46826112    -0.06200
C734        C  0.48745552  0.88890938  0.46772774    -0.17300
C735        C  0.48796077  0.92394826  0.45566827     0.11000
C736        C  0.02004273  0.92374714  0.44428847    -0.06100
C737        C  0.05521117  0.89155141  0.44438541    -0.17400
C738        C  0.05517394  0.85511861  0.45599749     0.11000
S739        S  0.44201599  0.96460867  0.45629844    -0.32300
S740        S  0.09944602  0.81270040  0.45459841    -0.32300
H741        H  0.11978436  0.82915558  0.43950575     0.29000
H742        H  0.44408761  0.97667493  0.43872228     0.29000
H743        H  0.46063187  0.88832055  0.47719374     0.19600
H744        H  0.08335291  0.89577772  0.43571075     0.19600
C745        C  0.01457246  0.65788681  0.46968169    -0.06200
C746        C  0.05389338  0.64921121  0.46001050    -0.17300
C747        C  0.05657408  0.61421193  0.44803665     0.11000
C748        C  0.01843484  0.58811001  0.44499194    -0.06100
C749        C  0.48595357  0.60138880  0.45261200    -0.17400
C750        C  0.48236897  0.63487787  0.46513465     0.11000
S751        S  0.11040409  0.60334205  0.43797013    -0.32300
S752        S  0.43069194  0.63764651  0.47726472    -0.32300
H753        H  0.45247198  0.63675563  0.49342927     0.29000
H754        H  0.10611330  0.55676682  0.43621813     0.29000
H755        H  0.08349906  0.66891530  0.46218444     0.19600
H756        H  0.45782484  0.57951928  0.45059893     0.19600
C757        C  0.02141629  0.85087644  0.54584936    -0.06200
C758        C  0.48096429  0.88137621  0.54752103    -0.17300
C759        C  0.47936899  0.91631756  0.55950398     0.11000
C760        C  0.01908601  0.91998045  0.57070240    -0.06100
C761        C  0.05871425  0.89489766  0.56789888    -0.17400
C762        C  0.06015570  0.85993617  0.55589082     0.11000
S763        S  0.42719329  0.94800896  0.56138641    -0.32300
S764        S  0.11224457  0.82823895  0.55437919    -0.32300
H765        H  0.09096080  0.78665211  0.55467947     0.29000
H766        H  0.43410687  0.96312270  0.57832456     0.29000
H767        H  0.45140053  0.87564618  0.53972242     0.19600
H768        H  0.08902877  0.90331897  0.57483412     0.19600
C769        C  0.00715709  0.59041348  0.57029893    -0.06200
C770        C  0.04482478  0.61784537  0.57016471    -0.17300
C771        C  0.04869716  0.65296598  0.55811607     0.11000
C772        C  0.01402372  0.66068169  0.54580564    -0.06100
C773        C  0.47874964  0.63203104  0.54427043    -0.17400
C774        C  0.47515101  0.59658332  0.55606434     0.11000
S775        S  0.09788903  0.68734566  0.55881054    -0.32300
S776        S  0.42649667  0.56192855  0.55396701    -0.32300
H777        H  0.42736087  0.54409096  0.57075540     0.29000
H778        H  0.11885238  0.66620694  0.57308450     0.29000
H779        H  0.07223255  0.61027189  0.57899957     0.19600
H780        H  0.45267112  0.63674110  0.53459348     0.19600
C781        C  0.03704998  0.86408066  0.63822234    -0.06200
C782        C  0.07499396  0.88933493  0.63459622    -0.17300
C783        C  0.07553747  0.91823271  0.62027930     0.11000
C784        C  0.03721112  0.92218220  0.60951476    -0.06100
C785        C  0.48189689  0.91461125  0.61346631    -0.17400
C786        C  0.47557999  0.88811711  0.62812517     0.11000
S787        S  0.12449915  0.95135632  0.61606702    -0.32300
S788        S  0.41868523  0.87471286  0.63387643    -0.32300
H789        H  0.42632539  0.87091949  0.65175733     0.29000
H790        H  0.15133104  0.93341144  0.62951460     0.29000
H791        H  0.10390741  0.88649586  0.64307612     0.19600
H792        H  0.45275522  0.92802993  0.60660576     0.19600
C793        C  0.02536321  0.64011950  0.63941960    -0.06200
C794        C  0.46781051  0.63113891  0.62891613    -0.17300
C795        C  0.98074104  0.60823772  0.61628932     0.11000
C796        C  0.01954394  0.58591667  0.60983679    -0.06100
C797        C  0.06105602  0.59209748  0.61803805    -0.17400
C798        C  0.06424308  0.61810703  0.63291047     0.11000
S799        S  0.41764884  0.58670023  0.60495315    -0.32300
S800        S  0.11887564  0.62229982  0.64285572    -0.32300
H801        H  0.10344196  0.63105684  0.65969073     0.29000
H802        H  0.43025113  0.54143712  0.60256417     0.29000
H803        H  0.43538063  0.64352538  0.63344865     0.19600
H804        H  0.09071924  0.57399808  0.61344674     0.19600
C805        C  0.00042908  0.87878203  0.72745448    -0.06200
C806        C  0.46065925  0.91223995  0.72466038    -0.17300
C807        C  0.45895512  0.95433592  0.73316323     0.11000
C808        C  0.49173778  0.96514576  0.74601284    -0.06100
C809        C  0.03277046  0.93746196  0.74545167    -0.17400
C810        C  0.03708133  0.89601296  0.73672199     0.11000
S811        S  0.41350567  0.99248262  0.72736188    -0.32300
S812        S  0.09105596  0.86715770  0.73788305    -0.32300
H813        H  0.08910205  0.84546091  0.72185419     0.29000
H814        H  0.39679276  0.96863629  0.71320078     0.29000
H815        H  0.43469267  0.90423462  0.71544376     0.19600
H816        H  0.06311702  0.94972472  0.75114133     0.19600
C817        C  0.99794191  0.63328593  0.72843869    -0.06200
C818        C  0.45087621  0.62523039  0.73463145    -0.17300
C819        C  0.44262738  0.58383918  0.74304051     0.11000
C820        C  0.47892333  0.55053147  0.74537322    -0.06100
C821        C  0.02135567  0.55604839  0.73643883    -0.17400
C822        C  0.02986370  0.59722693  0.72804963     0.11000
S823        S  0.38313776  0.58012907  0.74804872    -0.32300
S824        S  0.08353355  0.60234237  0.71748946    -0.32300
H825        H  0.08641267  0.64896301  0.71980142     0.29000
H826        H  0.37825996  0.53516628  0.75188348     0.29000
H827        H  0.42324996  0.64910270  0.73263223     0.19600
H828        H  0.04744823  0.53011378  0.73595538     0.19600
C829        C  0.36053013  0.01298761  0.79041944    -0.06200
C830        C  0.36947973  0.97549484  0.78008025    -0.17300
C831        C  0.41108744  0.96871278  0.77146868     0.11000
C832        C  0.44427323  0.00355166  0.77112019    -0.06100
C833        C  0.42436859  0.53759731  0.77969732    -0.17400
C834        C  0.38234505  0.53816204  0.78820892     0.11000
S835        S  0.41961584  0.91118660  0.76480724    -0.32300
S836        S  0.36328386  0.59050307  0.79760747    -0.32300
H837        H  0.31718077  0.58121935  0.79715449     0.29000
H838        H  0.46389115  0.90659653  0.77069183     0.29000
H839        H  0.34507184  0.94905839  0.77996976     0.19600
H840        H  0.44217527  0.56856525  0.77917050     0.19600
C841        C  0.11545241  0.00895275  0.78912723    -0.06200
C842        C  0.10128889  0.53387494  0.78177237    -0.17300
C843        C  0.05911598  0.54205648  0.77366823     0.11000
C844        C  0.02893359  0.01114483  0.77121090    -0.06100
C845        C  0.04539008  0.97317471  0.78062689    -0.17400
C846        C  0.08872294  0.97050742  0.78809121     0.11000
S847        S  0.04823964  0.60132169  0.76992045    -0.32300
S848        S  0.10743004  0.91699346  0.79678966    -0.32300
H849        H  0.15367105  0.92561776  0.79609819     0.29000
H850        H  0.00257668  0.60229935  0.77391321     0.29000
H851        H  0.12434690  0.56126912  0.78312393     0.19600
H852        H  0.02598092  0.94331490  0.78096222     0.19600
C853        C  0.40260418  0.03031662  0.90858818    -0.06200
C854        C  0.38164402  0.99168906  0.90261121    -0.17300
C855        C  0.35247239  0.99355397  0.88847160     0.11000
C856        C  0.34673447  0.03426546  0.87924168    -0.06100
C857        C  0.34916155  0.51614021  0.88662220    -0.17400
C858        C  0.37584276  0.52411746  0.90109123     0.11000
S859        S  0.32531663  0.94244432  0.88242268    -0.32300
S860        S  0.37825946  0.58062496  0.90898896    -0.32300
H861        H  0.37835154  0.56740341  0.92640146     0.29000
H862        H  0.28579090  0.96264916  0.87577091     0.29000
H863        H  0.38971399  0.95939346  0.90842831     0.19600
H864        H  0.32963165  0.54359832  0.88093049     0.19600
C865        C  0.06536403  0.02868801  0.90701289    -0.06200
C866        C  0.10083880  0.99735866  0.90512014    -0.17300
C867        C  0.13091948  0.00034679  0.89130103     0.11000
C868        C  0.12524896  0.03535656  0.87899938    -0.06100
C869        C  0.12244038  0.50267244  0.88789877    -0.17400
C870        C  0.09266626  0.50858916  0.90164233     0.11000
S871        S  0.17519405  0.95796981  0.88999648    -0.32300
S872        S  0.08827505  0.56358942  0.91093260    -0.32300
H873        H  0.04119010  0.56614888  0.90963974     0.29000
H874        H  0.18093579  0.95931729  0.87199014     0.29000
H875        H  0.10352399  0.96879958  0.91378013     0.19600
H876        H  0.14307692  0.53033793  0.88387572     0.19600
C877        C  0.44103582  0.00918989  0.24827362    -0.06200
C878        C  0.44023037  0.51187241  0.22867238    -0.17300
C879        C  0.40052500  0.51420365  0.21874730     0.11000
C880        C  0.35892010  0.00495037  0.22793010    -0.06100
C881        C  0.36026928  0.98993542  0.24504501    -0.17400
C882        C  0.39893548  0.99405951  0.25551713     0.11000
S883        S  0.40529830  0.53906933  0.19750167    -0.32300
S884        S  0.39047639  0.98090987  0.27808103    -0.32300
H885        H  0.34355109  0.98814251  0.27844506     0.29000
H886        H  0.36100076  0.55662648  0.19699923     0.29000
H887        H  0.47098886  0.51752766  0.22186385     0.19600
H888        H  0.33043335  0.97505566  0.25037767     0.19600
C889        C  0.11500151  0.01305044  0.22999408    -0.06200
C890        C  0.08213635  0.54640221  0.22592406    -0.17300
C891        C  0.04142340  0.54867186  0.23547247     0.11000
C892        C  0.02980242  0.01373912  0.24840924    -0.06100
C893        C  0.06682934  0.98409962  0.25266447    -0.17400
C894        C  0.10746758  0.98235037  0.24344237     0.11000
S895        S  0.00482463  0.59730273  0.23187958    -0.32300
S896        S  0.14826016  0.93933386  0.24951489    -0.32300
H897        H  0.16266108  0.92939010  0.23264327     0.29000
H898        H  0.03404356  0.62176068  0.22133582     0.29000
H899        H  0.08807627  0.57076530  0.21581088     0.19600
H900        H  0.06584865  0.96188799  0.26365943     0.19600
C901        C  0.33085543  0.48404440  0.97155165    -0.06200
C902        C  0.35811063  0.52176701  0.97218745    -0.17300
C903        C  0.39348372  0.52718669  0.96057377     0.11000
C904        C  0.40048603  0.02540123  0.94837030    -0.06100
C905        C  0.37035273  0.99017504  0.94675824    -0.17400
C906        C  0.33419171  0.98560327  0.95809712     0.11000
S907        S  0.42592783  0.57733551  0.96270111    -0.32300
S908        S  0.29487949  0.94214393  0.95349263    -0.32300
H909        H  0.25690640  0.96801115  0.95847208     0.29000
H910        H  0.43940767  0.58013533  0.94534418     0.29000
H911        H  0.35244430  0.54696486  0.98204550     0.19600
H912        H  0.37581069  0.96487626  0.93700797     0.19600
C913        C  0.07255212  0.01274166  0.94632526    -0.06200
C914        C  0.09148302  0.97028891  0.94992972    -0.17300
C915        C  0.12552582  0.96434840  0.96226379     0.11000
C916        C  0.13834315  0.47336071  0.97085925    -0.06100
C917        C  0.11589740  0.51485969  0.96813967    -0.17400
C918        C  0.08092068  0.51994936  0.95624106     0.11000
S919        S  0.14634304  0.90769746  0.96548443    -0.32300
S920        S  0.05324096  0.57459356  0.95532033    -0.32300
H921        H  0.02776460  0.56880346  0.94031621     0.29000
H922        H  0.19120635  0.91882050  0.96218067     0.29000
H923        H  0.07837247  0.94115346  0.94348059     0.19600
H924        H  0.12452322  0.54375786  0.97578562     0.19600
C925        C  0.40720413  0.96681488  0.11291579    -0.02600
C926        C  0.38180481  0.92895535  0.11669736    -0.17300
C927        C  0.35263772  0.92854220  0.13090220     0.11000
C928        C  0.34977757  0.96631360  0.14184183    -0.06100
C929        C  0.36925143  0.50105984  0.13539393    -0.17400
C930        C  0.39930533  0.50128349  0.12158628     0.11000
S931        S  0.31985811  0.87917399  0.13434642    -0.32300
S932        S  0.42840618  0.55305838  0.11782822    -0.32300
H933        H  0.46335809  0.53730044  0.10723348     0.29000
H934        H  0.31415900  0.88450872  0.15224700     0.29000
H935        H  0.38614850  0.89887861  0.10903699     0.19600
H936        H  0.36384174  0.53141603  0.14284571     0.19600
C937        C  0.06714927  0.96023535  0.11199491    -0.06200
C938        C  0.06990146  0.49524396  0.11608356    -0.17300
C939        C  0.09561214  0.50538504  0.13059081     0.11000
C940        C  0.12070105  0.97749937  0.14113583    -0.06100
C941        C  0.11326512  0.93329596  0.13595019    -0.17400
C942        C  0.08669864  0.92434527  0.12152485     0.11000
S943        S  0.10047296  0.56370956  0.13622060    -0.32300
S944        S  0.07703540  0.86658547  0.11634791    -0.32300
H945        H  0.07251785  0.87423236  0.09852372     0.29000
H946        H  0.10876062  0.55701593  0.15392359     0.29000
H947        H  0.05162347  0.52213971  0.10946947     0.19600
H948        H  0.12873315  0.90563575  0.14310124     0.19600
C949        C  0.33054952  0.46814359  0.04794825    -0.06200
C950        C  0.35904413  0.50480115  0.04930785    -0.17300
C951        C  0.39432018  0.50480983  0.06124417     0.11000
C952        C  0.40188657  0.46707305  0.07211792    -0.06100
C953        C  0.36949876  0.94420842  0.07217753    -0.17400
C954        C  0.33346675  0.94853700  0.06063140     0.11000
S955        S  0.42964025  0.55321101  0.06126937    -0.32300
S956        S  0.29224759  0.90516829  0.06096578    -0.32300
H957        H  0.25533988  0.93454056  0.05786262     0.29000
H958        H  0.44458147  0.54833523  0.07835678     0.29000
H959        H  0.35470702  0.53323224  0.04063035     0.19600
H960        H  0.37331659  0.91373080  0.07973202     0.19600
C961        C  0.13915602  0.45539963  0.04756215    -0.06200
C962        C  0.11694176  0.93321774  0.04813772    -0.17300
C963        C  0.08182555  0.92570757  0.05972159     0.11000
C964        C  0.06759529  0.44483408  0.07118294    -0.06100
C965        C  0.09343120  0.48351840  0.07144230    -0.17400
C966        C  0.12953148  0.48879673  0.06008642     0.11000
S967        S  0.05131529  0.87447326  0.05703954    -0.32300
S968        S  0.16212557  0.53854999  0.06255860    -0.32300
H969        H  0.20379720  0.51606365  0.06018086     0.29000
H970        H  0.02983811  0.87385362  0.07316522     0.29000
H971        H  0.12367961  0.90866085  0.03813482     0.19600
H972        H  0.08477434  0.51040755  0.08026870     0.19600
C973        C  0.52587007  0.96242502  0.08144116     0.02200
C974        C  0.52676228  0.45317498  0.09978039     0.02200
C975        C  0.98456083  0.44004282  0.10835996    -0.18300
C976        C  0.94375037  0.44633692  0.09968004     0.02200
C977        C  0.94631481  0.96026827  0.08216798     0.02200
C978        C  0.48379135  0.96475988  0.07329782    -0.18300
H979        H  0.48223073  0.96747561  0.05932071     0.04200
H980        H  0.98461271  0.43858066  0.12239621     0.04200
O981        O  0.78258887  0.43474448  0.02598345    -0.73000
O982        O  0.68871728  0.44390045  0.98869139    -0.74000
O983        O  0.78377424  0.44484364  0.98925802    -0.62600
O984        O  0.68800488  0.43355834  0.02535601    -0.71000
O985        O  0.68727545  0.01516895  0.02877804    -0.70600
O986        O  0.78395718  0.02427074  0.99290007    -0.61800
O987        O  0.68922951  0.02493239  0.99229053    -0.74300
O988        O  0.78224407  0.01497107  0.02954714    -0.73100
Cu989      Cu  0.73586060  0.43672799  0.00721181     1.04600
Cu990      Cu  0.73564661  0.02233062  0.01096250     1.04300
C991        C  0.79761399  0.97647624  0.03429533     0.93200
C992        C  0.67454960  0.99002138  0.98485442     0.92300
C993        C  0.79973313  0.98892401  0.98557045     0.84500
C994        C  0.67347723  0.97664582  0.03335219     0.90700
N995        N  0.66619578  0.49288490  0.18482148    -0.36700
N996        N  0.73355830  0.47561425  0.15864555    -0.57200
N997        N  0.80225410  0.47744870  0.18456533    -0.36700
N998        N  0.73579257  0.49308709  0.21159810    -0.57200
C999        C  0.64057439  0.47955953  0.17137611     0.26900
C1000       C  0.64087746  0.48982128  0.19926578     0.26900
C1001       C  0.82448459  0.45757979  0.17126618     0.26900
C1002       C  0.82591429  0.46824626  0.19911743     0.26900
C1003       C  0.69797146  0.48465191  0.14839757     0.35500
C1004       C  0.76979783  0.47613729  0.14827523     0.35500
C1005       C  0.69988182  0.50936448  0.22072309     0.35500
C1006       C  0.77392263  0.50357881  0.22032825     0.35500
C1007       C  0.59846159  0.46804094  0.17728569    -0.22000
C1008       C  0.59864383  0.47434696  0.19489073    -0.22000
C1009       C  0.86224439  0.43466151  0.17741534    -0.22000
C1010       C  0.86279736  0.44076718  0.19507180    -0.22000
C1011       C  0.71157643  0.49097555  0.13142806    -0.23000
C1012       C  0.75734545  0.48569749  0.13136196    -0.23000
C1013       C  0.71522919  0.52987794  0.23554910    -0.23000
C1014       C  0.76186773  0.52685754  0.23518793    -0.23000
C1015       C  0.65331547  0.48088816  0.15379531    -0.18400
C1016       C  0.65362007  0.50411866  0.21600106    -0.18400
C1017       C  0.81876536  0.49015939  0.21516094    -0.18400
C1018       C  0.81310515  0.46309616  0.15365357    -0.18400
H1019       H  0.57030257  0.45697993  0.16967224     0.14500
H1020       H  0.57051812  0.46880037  0.20344773     0.14500
H1021       H  0.88719591  0.41630609  0.16991624     0.14500
H1022       H  0.88872937  0.42843249  0.20381881     0.14500
H1023       H  0.69082087  0.01781270  0.11951121     0.12800
H1024       H  0.77851987  0.00466080  0.11931946     0.12800
H1025       H  0.69494190  0.54577784  0.24548929     0.12800
H1026       H  0.78409862  0.54029812  0.24483150     0.12800
H1027       H  0.69718823  0.50819394  0.18395044     0.26100
H1028       H  0.77655921  0.50164813  0.18345660     0.26100
C1029       C  0.52520534  0.50121552  0.93587447     0.02200
C1030       C  0.52252187  0.50792070  0.91782198     0.02200
C1031       C  0.98454629  0.48426331  0.90908049    -0.18300
C1032       C  0.94416565  0.49174040  0.91789272     0.02200
C1033       C  0.94412249  0.49316395  0.93615548     0.02200
C1034       C  0.98531540  0.48890116  0.94494063    -0.18300
H1035       H  0.48379186  0.01696238  0.96073367     0.04200
H1036       H  0.98421016  0.48273382  0.89505853     0.04200
N1037       N  0.80145795  0.51270983  0.83275330    -0.36700
N1038       N  0.73274841  0.52449083  0.85846310    -0.57200
N1039       N  0.66371534  0.51921895  0.83205034    -0.36700
N1040       N  0.73310271  0.50637018  0.80553701    -0.57200
C1041       C  0.82504226  0.50311319  0.84739572     0.26900
C1042       C  0.82633057  0.49753662  0.81929953     0.26900
C1043       C  0.63880341  0.51464346  0.84663196     0.26900
C1044       C  0.63771957  0.50725300  0.81853061     0.26900
C1045       C  0.76887098  0.53141555  0.86848367     0.35500
C1046       C  0.69665133  0.53534951  0.86813423     0.35500
C1047       C  0.77057974  0.50966613  0.79548503     0.35500
C1048       C  0.69621167  0.51105985  0.79513274     0.35500
C1049       C  0.86533268  0.48167182  0.84317223    -0.22000
C1050       C  0.86617177  0.47813827  0.82546127    -0.22000
C1051       C  0.59636995  0.50031764  0.84235082    -0.22000
C1052       C  0.59540190  0.49623513  0.82469819    -0.22000
C1053       C  0.75571488  0.54761599  0.88451740    -0.23000
C1054       C  0.70977976  0.55027722  0.88426462    -0.23000
C1055       C  0.75730621  0.51580645  0.77843624    -0.23000
C1056       C  0.71052688  0.51636869  0.77819994    -0.23000
C1057       C  0.81235102  0.51585277  0.86434046    -0.18400
C1058       C  0.81624628  0.50495782  0.80157839    -0.18400
C1059       C  0.65010539  0.50845288  0.80073698    -0.18400
C1060       C  0.65254464  0.52469363  0.86368217    -0.18400
H1061       H  0.89181214  0.47053129  0.85189983     0.14500
H1062       H  0.89346048  0.46363358  0.81793283     0.14500
H1063       H  0.56861412  0.49415324  0.85101774     0.14500
H1064       H  0.56630443  0.48642928  0.81739477     0.14500
H1065       H  0.77669176  0.55446815  0.89557582     0.12800
H1066       H  0.68843567  0.55967319  0.89504436     0.12800
H1067       H  0.77902981  0.51891773  0.76729965     0.12800
H1068       H  0.68946668  0.52015389  0.76684897     0.12800
H1069       H  0.77294962  0.53341862  0.83171994     0.26100
H1070       H  0.69501153  0.53372785  0.83117448     0.26100
N1071       N  0.52040139  0.18806785  0.68354213    -0.36700
N1072       N  0.53949453  0.25643896  0.65804703    -0.57200
N1073       N  0.52693004  0.32574969  0.68389718    -0.36700
N1074       N  0.50521165  0.25678105  0.70993744    -0.57200
C1075       C  0.51605570  0.16468237  0.66865046     0.26900
C1076       C  0.50198883  0.16343872  0.69633634     0.26900
C1077       C  0.52766361  0.35112609  0.66925565     0.26900
C1078       C  0.51235044  0.35259404  0.69690001     0.26900
C1079       C  0.54857553  0.22002647  0.64835720     0.35500
C1080       C  0.55189822  0.29192996  0.64852768     0.35500
C1081       C  0.50435967  0.21942035  0.72024445     0.35500
C1082       C  0.50536878  0.29370895  0.72031341     0.35500
C1083       C  0.49472167  0.12478174  0.67204755    -0.22000
C1084       C  0.48576951  0.12401835  0.68947099    -0.22000
C1085       C  0.51453073  0.39474690  0.67305156    -0.22000
C1086       C  0.50545557  0.39590522  0.69042501    -0.22000
C1087       C  0.56763127  0.23241864  0.63272513    -0.23000
C1088       C  0.56980083  0.27808734  0.63286067    -0.23000
C1089       C  0.50321314  0.23292387  0.73736523    -0.23000
C1090       C  0.50340474  0.27955669  0.73740093    -0.23000
C1091       C  0.53356451  0.17690991  0.65230696    -0.18400
C1092       C  0.50275012  0.17366960  0.71424310    -0.18400
C1093       C  0.50658000  0.33988956  0.71455696    -0.18400
C1094       C  0.54062825  0.33652894  0.65254335    -0.18400
H1095       H  0.48709722  0.09848757  0.66298890     0.14500
H1096       H  0.46966901  0.09709280  0.69635640     0.14500
H1097       H  0.51221869  0.42305671  0.66425414     0.14500
H1098       H  0.49493779  0.42573606  0.69734930     0.14500
H1099       H  0.57686006  0.21119361  0.62193804     0.12800
H1100       H  0.58112092  0.29885049  0.62228006     0.12800
H1101       H  0.50196662  0.21147769  0.74867198     0.12800
H1102       H  0.50266734  0.30065972  0.74874228     0.12800
H1103       H  0.53973347  0.21626042  0.68531948     0.26100
H1104       H  0.53887188  0.29298997  0.68528622     0.26100
C1105       C  0.52867716  0.04882072  0.59756182     0.02200
C1106       C  0.52194689  0.04970490  0.57947974     0.02200
C1107       C  0.51424826  0.50581780  0.57069331    -0.18300
C1108       C  0.52052981  0.46522594  0.57982645     0.02200
C1109       C  0.52747836  0.46642781  0.59785576     0.02200
C1110       C  0.52420595  0.50744661  0.60634972    -0.18300
H1111       H  0.52739381  0.50808847  0.62033504     0.04200
H1112       H  0.51143873  0.50501968  0.55672380     0.04200
O1113       O  0.56637593  0.30571145  0.52487984    -0.73000
O1114       O  0.56843872  0.20979378  0.48837549    -0.74000
O1115       O  0.56780464  0.30507967  0.48784614    -0.62600
O1116       O  0.56676501  0.21070278  0.52531507    -0.71000
O1117       O  0.97704400  0.20833243  0.52623131    -0.70600
O1118       O  0.97751316  0.30306578  0.48935530    -0.61800
O1119       O  0.97793718  0.20850673  0.48944958    -0.74300
O1120       O  0.97708382  0.30299635  0.52621045    -0.73100
Cu1121     Cu  0.57001484  0.25783258  0.50659406     1.04600
Cu1122     Cu  0.97485463  0.25581129  0.50780805     1.04300
C1123       C  0.52877049  0.32002467  0.53093926     0.93200
C1124       C  0.53137600  0.19594955  0.48220883     0.92300
C1125       C  0.53060807  0.32068948  0.48176324     0.84500
C1126       C  0.52911650  0.19676997  0.53089191     0.90700
C1127       C  0.98466246  0.50455415  0.75871214    -0.02600
C1128       C  0.53925655  0.04973202  0.43342630     0.02200
C1129       C  0.54258130  0.04926552  0.41522622     0.02200
C1130       C  0.53522899  0.50976913  0.40661276    -0.18300
C1131       C  0.53538293  0.46917287  0.41561953     0.02200
C1132       C  0.53047259  0.46936320  0.43373275     0.02200
C1133       C  0.52841264  0.51074231  0.44235432    -0.18300
H1134       H  0.52573407  0.51111224  0.45633462     0.04200
H1135       H  0.53742702  0.50932581  0.39260102     0.04200
N1136       N  0.53246977  0.19288792  0.33026786    -0.36700
N1137       N  0.55142709  0.25909106  0.35547741    -0.57200
N1138       N  0.52512268  0.32963070  0.33153988    -0.36700
N1139       N  0.50707500  0.26327549  0.30515352    -0.57200
C1140       C  0.53269390  0.16778908  0.34497498     0.26900
C1141       C  0.51126096  0.16898859  0.31807798     0.26900
C1142       C  0.51529966  0.34674747  0.34735031     0.26900
C1143       C  0.49672527  0.34995456  0.32013269     0.26900
C1144       C  0.56667574  0.22303151  0.36433911     0.35500
C1145       C  0.56120135  0.29493800  0.36506441     0.35500
C1146       C  0.50061891  0.22698101  0.29502153     0.35500
C1147       C  0.49705787  0.30045344  0.29550009     0.35500
C1148       C  0.51175450  0.12757761  0.34200806    -0.22000
C1149       C  0.49820498  0.12843498  0.32505552    -0.22000
C1150       C  0.47955660  0.37711820  0.34606959    -0.22000
C1151       C  0.46656595  0.37765631  0.32899487    -0.22000
C1152       C  0.58822397  0.23598601  0.37933631    -0.23000
C1153       C  0.58483916  0.28187907  0.37978677    -0.23000
C1154       C  0.48482541  0.24103541  0.27900583    -0.23000
C1155       C  0.48051741  0.28712372  0.27963863    -0.23000
C1156       C  0.55251697  0.17962108  0.36087249    -0.18400
C1157       C  0.50502447  0.18144597  0.30055603    -0.18400
C1158       C  0.49915725  0.34535698  0.30186322    -0.18400
C1159       C  0.53919116  0.33643965  0.36268893    -0.18400
H1160       H  0.50666022  0.10046874  0.35110266     0.14500
H1161       H  0.47978228  0.10263040  0.31864098     0.14500
H1162       H  0.46402200  0.39637369  0.35636313     0.14500
H1163       H  0.43905109  0.39753610  0.32355383     0.14500
H1164       H  0.60167914  0.21457252  0.38952562     0.12800
H1165       H  0.59487081  0.30267267  0.39047661     0.12800
H1166       H  0.47467427  0.22035795  0.26831565     0.12800
H1167       H  0.46452109  0.30787434  0.26981897     0.12800
H1168       H  0.54951669  0.22246728  0.32807497     0.26100
H1169       H  0.55257567  0.30876407  0.32839902     0.26100
C1170       C  0.98484967  0.51322078  0.25889425    -0.02600
C1171       C  0.48655583  0.47176329  0.27081374    -0.06200
C1172       C  0.99102076  0.42799983  0.26324746    -0.17300
C1173       C  0.99979019  0.38785846  0.27249729     0.11000
C1174       C  0.49802376  0.38821308  0.29039364    -0.06100
C1175       C  0.49629295  0.43085455  0.29828485    -0.17400
C1176       C  0.48874565  0.47132668  0.28933008     0.11000
S1177       S  0.03576904  0.34801211  0.26129009    -0.32300
S1178       S  0.47948262  0.51790106  0.30378916    -0.32300
H1179       H  0.44433633  0.03470878  0.29718093     0.29000
H1180       H  0.56425555  0.33738038  0.27497511     0.29000
H1181       H  0.99369555  0.42690080  0.24928337     0.19600
H1182       H  0.50236082  0.43407079  0.31191055     0.19600
C1183       C  0.50103711  0.14353906  0.28798751    -0.06200
C1184       C  0.95116203  0.13199749  0.27955251    -0.17300
C1185       C  0.94663339  0.09318469  0.26931105     0.11000
C1186       C  0.48716652  0.06148887  0.26931696    -0.06100
C1187       C  0.52889927  0.07166445  0.27721208    -0.17400
C1188       C  0.53640194  0.11179269  0.28588376     0.11000
S1189       S  0.89596619  0.09218269  0.25639621    -0.32300
S1190       S  0.59187799  0.11949930  0.29470269    -0.32300
H1191       H  0.59046003  0.16661876  0.29370622     0.29000
H1192       H  0.87755298  0.13459815  0.26060345     0.29000
H1193       H  0.92321089  0.15558699  0.28093925     0.19600
H1194       H  0.55646390  0.04733426  0.27692474     0.19600
C1195       C  0.54049154  0.42829391  0.40509608    -0.06200
C1196       C  0.98824279  0.39849443  0.40325824    -0.17300
C1197       C  0.98656462  0.36830941  0.38948240     0.11000
C1198       C  0.53795988  0.36771313  0.37745931    -0.06100
C1199       C  0.57596257  0.39352676  0.38018561    -0.17400
C1200       C  0.57809246  0.42285737  0.39408764     0.11000
S1201       S  0.93666453  0.33545025  0.38735540    -0.32300
S1202       S  0.62891252  0.45411609  0.39667391    -0.32300
H1203       H  0.62193687  0.94888027  0.41479804     0.29000
H1204       H  0.95607513  0.29982385  0.37795026     0.29000
H1205       H  0.95890426  0.40357940  0.41137870     0.19600
H1206       H  0.60430588  0.39056291  0.37142873     0.19600
C1207       C  0.55197520  0.14759953  0.37553072    -0.06200
C1208       C  0.99610746  0.14098066  0.38534503    -0.17300
C1209       C  0.99333583  0.11192196  0.39953794     0.11000
C1210       C  0.54716543  0.08920899  0.40412602    -0.06100
C1211       C  0.58677076  0.09173204  0.39428569    -0.17400
C1212       C  0.58947359  0.12009053  0.37992669     0.11000
S1213       S  0.93867556  0.10479909  0.40916541    -0.32300
S1214       S  0.64117946  0.11808063  0.36765789    -0.32300
H1215       H  0.62854069  0.14638747  0.35387632     0.29000
H1216       H  0.94074557  0.56648415  0.41536489     0.29000
H1217       H  0.96619452  0.15928301  0.38103856     0.19600
H1218       H  0.61494801  0.06922201  0.39722311     0.19600
C1219       C  0.52999231  0.35565757  0.46802697    -0.06200
C1220       C  0.97728276  0.38101244  0.46829198    -0.17300
C1221       C  0.97580094  0.41599052  0.45620920     0.11000
C1222       C  0.52753020  0.42766602  0.44413063    -0.06100
C1223       C  0.56395391  0.39690497  0.44430949    -0.17400
C1224       C  0.56517916  0.36039260  0.45586955     0.11000
S1225       S  0.92582585  0.45150080  0.45566270    -0.32300
S1226       S  0.61107283  0.31976485  0.45448828    -0.32300
H1227       H  0.62834911  0.33484355  0.43861621     0.29000
H1228       H  0.92891808  0.46278015  0.43803303     0.29000
H1229       H  0.94944192  0.37779586  0.47720482     0.19600
H1230       H  0.59200488  0.40221131  0.43569053     0.19600
C1231       C  0.53185992  0.16036053  0.46879280    -0.06200
C1232       C  0.57105825  0.15327832  0.45885276    -0.17300
C1233       C  0.57436683  0.11862170  0.44668618     0.11000
C1234       C  0.53700022  0.09128730  0.44381148    -0.06100
C1235       C  0.98277796  0.09610650  0.45430689    -0.17400
C1236       C  0.97934866  0.12867305  0.46718597     0.11000
S1237       S  0.62779766  0.10994145  0.43604917    -0.32300
S1238       S  0.92856155  0.12942939  0.47988316    -0.32300
H1239       H  0.95143345  0.12970920  0.49582000     0.29000
H1240       H  0.62475099  0.06333645  0.43396243     0.29000
H1241       H  0.59994794  0.17407157  0.46091122     0.19600
H1242       H  0.95486709  0.07396904  0.45227343     0.19600
C1243       C  0.52689027  0.35347279  0.54518911    -0.06200
C1244       C  0.97324480  0.37741674  0.54837556    -0.17300
C1245       C  0.97081220  0.41283834  0.56013620     0.11000
C1246       C  0.52035738  0.42304069  0.56987339    -0.06100
C1247       C  0.56068819  0.39847615  0.56781892    -0.17400
C1248       C  0.56416090  0.36329848  0.55590548     0.11000
S1249       S  0.91747277  0.44236745  0.56233717    -0.32300
S1250       S  0.61677469  0.33221594  0.55537311    -0.32300
H1251       H  0.59618142  0.29024022  0.55504502     0.29000
H1252       H  0.92457507  0.45841667  0.57913457     0.29000
H1253       H  0.94351591  0.37002717  0.54091112     0.19600
H1254       H  0.58997764  0.40745247  0.57527244     0.19600
C1255       C  0.52000678  0.09178336  0.56921653    -0.06200
C1256       C  0.55802370  0.11875019  0.56894367    -0.17300
C1257       C  0.56196347  0.15397767  0.55693682     0.11000
C1258       C  0.52706408  0.16215218  0.54475213    -0.06100
C1259       C  0.97674896  0.12819959  0.54599506    -0.17400
C1260       C  0.97422166  0.09260760  0.55773247     0.11000
S1261       S  0.61147248  0.18794103  0.55757343    -0.32300
S1262       S  0.92645620  0.05679115  0.55567853    -0.32300
H1263       H  0.92751513  0.03989978  0.57260875     0.29000
H1264       H  0.63180394  0.16735155  0.57209361     0.29000
H1265       H  0.58553844  0.11084278  0.57769256     0.19600
H1266       H  0.95073776  0.13203327  0.53624288     0.19600
C1267       C  0.53756268  0.36841917  0.63776596    -0.06200
C1268       C  0.57484526  0.39434604  0.63381098    -0.17300
C1269       C  0.57417240  0.42322036  0.61945962     0.11000
C1270       C  0.53528787  0.42654694  0.60897724    -0.06100
C1271       C  0.97644955  0.40802605  0.61354474    -0.17400
C1272       C  0.97278932  0.38054290  0.62807902     0.11000
S1273       S  0.62243342  0.45691675  0.61477734    -0.32300
S1274       S  0.91744379  0.36245155  0.63401663    -0.32300
H1275       H  0.92541643  0.36047387  0.65191129     0.29000
H1276       H  0.65027660  0.43935877  0.62799603     0.29000
H1277       H  0.60428057  0.39194246  0.64203555     0.19600
H1278       H  0.94617014  0.41948389  0.60691059     0.19600
C1279       C  0.53300966  0.14433828  0.63793045    -0.06200
C1280       C  0.96815757  0.12491018  0.63027108    -0.17300
C1281       C  0.49070176  0.11034386  0.61467013     0.11000
C1282       C  0.53040899  0.08865088  0.60871220    -0.06100
C1283       C  0.57121386  0.09614380  0.61723441    -0.17400
C1284       C  0.57276562  0.12281958  0.63198278     0.11000
S1285       S  0.91933142  0.07589105  0.60733857    -0.32300
S1286       S  0.62632121  0.12797572  0.64266868    -0.32300
H1287       H  0.60907542  0.13571025  0.65932303     0.29000
H1288       H  0.93457429  0.03136152  0.60497545     0.29000
H1289       H  0.93541652  0.13634854  0.63482373     0.19600
H1290       H  0.60152307  0.07841805  0.61306762     0.19600
C1291       C  0.50044411  0.37876605  0.72704801    -0.06200
C1292       C  0.95955129  0.40935719  0.72452134    -0.17300
C1293       C  0.95790472  0.45177123  0.73278482     0.11000
C1294       C  0.99042492  0.46279043  0.74568462    -0.06100
C1295       C  0.53170179  0.44330599  0.74210722    -0.17400
C1296       C  0.53752934  0.40096057  0.73418256     0.11000
S1297       S  0.91373883  0.49054945  0.72623492    -0.32300
S1298       S  0.59413401  0.37830818  0.73271832    -0.32300
H1299       H  0.58259423  0.33296122  0.73240591     0.29000
H1300       H  0.88904664  0.46120597  0.71593140     0.29000
H1301       H  0.93378904  0.40121169  0.71524021     0.19600
H1302       H  0.56185234  0.45939796  0.74638812     0.19600
C1303       C  0.49958475  0.13355545  0.72651969    -0.06200
C1304       C  0.95120005  0.12415539  0.73733005    -0.17300
C1305       C  0.94446905  0.08332827  0.74638559     0.11000
C1306       C  0.97968008  0.04861348  0.74694650    -0.06100
C1307       C  0.52209906  0.05641999  0.73507208    -0.17400
C1308       C  0.53022006  0.09635873  0.72576208     0.11000
S1309       S  0.88835829  0.08169908  0.75532674    -0.32300
S1310       S  0.58186362  0.09813823  0.71358775    -0.32300
H1311       H  0.58702392  0.14476523  0.71485458     0.29000
H1312       H  0.88100723  0.03592610  0.75432724     0.29000
H1313       H  0.92439924  0.14944178  0.73701769     0.19600
H1314       H  0.54744306  0.02978931  0.73442123     0.19600
C1315       C  0.85667990  0.50641110  0.78960162    -0.06200
C1316       C  0.86636827  0.46988194  0.77885403    -0.17300
C1317       C  0.90851701  0.46396429  0.77055648     0.11000
C1318       C  0.94138328  0.49911390  0.77080100    -0.06100
C1319       C  0.93287109  0.03072185  0.78418117    -0.17400
C1320       C  0.89147690  0.03285181  0.79316031     0.11000
S1321       S  0.91817209  0.40666782  0.76380489    -0.32300
S1322       S  0.88105486  0.08109565  0.80669009    -0.32300
H1323       H  0.83387147  0.07988363  0.80591295     0.29000
H1324       H  0.96231412  0.40260697  0.76984503     0.29000
H1325       H  0.84224307  0.44322514  0.77830543     0.19600
H1326       H  0.95552803  0.05768505  0.78609321     0.19600
C1327       C  0.61133684  0.50734431  0.78795796    -0.06200
C1328       C  0.60463345  0.03710950  0.78129683    -0.17300
C1329       C  0.56297941  0.04489222  0.77272009     0.11000
C1330       C  0.52495454  0.51023134  0.77015137    -0.06100
C1331       C  0.54365222  0.47035283  0.77760794    -0.17400
C1332       C  0.58682967  0.46796612  0.78517203     0.11000
S1333       S  0.55367556  0.10351994  0.76745068    -0.32300
S1334       S  0.60783291  0.41336378  0.79189915    -0.32300
H1335       H  0.65361406  0.42397603  0.79181812     0.29000
H1336       H  0.50908902  0.10647485  0.77301362     0.29000
H1337       H  0.62812596  0.06424530  0.78224706     0.19600
H1338       H  0.52619396  0.43931585  0.77626794     0.19600
C1339       C  0.90424460  0.50006751  0.90696849    -0.06200
C1340       C  0.88203960  0.46269207  0.90051556    -0.17300
C1341       C  0.85138459  0.46702022  0.88687745     0.11000
C1342       C  0.84440421  0.50926942  0.87887432    -0.06100
C1343       C  0.85597936  0.02443251  0.88701011    -0.17400
C1344       C  0.88350749  0.03245740  0.90118173     0.11000
S1345       S  0.82344344  0.41722444  0.87989540    -0.32300
S1346       S  0.89037655  0.08958733  0.90777127    -0.32300
H1347       H  0.88432583  0.07914821  0.92529555     0.29000
H1348       H  0.78263747  0.43877178  0.87526338     0.29000
H1349       H  0.88982400  0.42962647  0.90574046     0.19600
H1350       H  0.83871749  0.05245611  0.88069659     0.19600
C1351       C  0.56134488  0.51676239  0.90653190    -0.06200
C1352       C  0.59294842  0.48198272  0.90372189    -0.17300
C1353       C  0.62237206  0.48331752  0.88965319     0.11000
C1354       C  0.62021159  0.52028519  0.87811771    -0.06100
C1355       C  0.61796616  0.03267627  0.88802768    -0.17400
C1356       C  0.58878775  0.04048958  0.90188905     0.11000
S1357       S  0.66138023  0.43656384  0.88698627    -0.32300
S1358       S  0.58423323  0.09674792  0.91017393    -0.32300
H1359       H  0.53719977  0.09739645  0.91188723     0.29000
H1360       H  0.66433952  0.43911491  0.86888859     0.29000
H1361       H  0.59282805  0.45231458  0.91185509     0.19600
H1362       H  0.63767400  0.05997331  0.88303419     0.19600
C1363       C  0.94065859  0.50559149  0.24757103    -0.06200
C1364       C  0.94058168  0.01223609  0.22959787    -0.17300
C1365       C  0.90125408  0.01568032  0.21950733     0.11000
C1366       C  0.86008284  0.49802900  0.22636309    -0.06100
C1367       C  0.86013528  0.48604625  0.24385903    -0.17400
C1368       C  0.89791104  0.49219272  0.25465955     0.11000
S1369       S  0.90688681  0.04244902  0.19864356    -0.32300
S1370       S  0.88776668  0.48443519  0.27746259    -0.32300
H1371       H  0.84060220  0.48934897  0.27703080     0.29000
H1372       H  0.86292178  0.06088409  0.19828217     0.29000
H1373       H  0.97150143  0.01814505  0.22295837     0.19600
H1374       H  0.82981787  0.47238913  0.24927512     0.19600
C1375       C  0.61561553  0.51161296  0.22874170    -0.06200
C1376       C  0.58271158  0.05012662  0.22602439    -0.17300
C1377       C  0.54206883  0.05175766  0.23559732     0.11000
C1378       C  0.53029838  0.51421912  0.24719560    -0.06100
C1379       C  0.56716264  0.48453811  0.25167450    -0.17400
C1380       C  0.60768043  0.48169526  0.24240502     0.11000
S1381       S  0.50670661  0.10171811  0.23297719    -0.32300
S1382       S  0.64764875  0.43806058  0.24862617    -0.32300
H1383       H  0.66111614  0.42683067  0.23175854     0.29000
H1384       H  0.52476995  0.11610483  0.21715271     0.29000
H1385       H  0.58907879  0.07578130  0.21644347     0.19600
H1386       H  0.56614207  0.46302522  0.26287126     0.19600
C1387       C  0.83539825  0.99315075  0.97218481    -0.06200
C1388       C  0.85935299  0.03324545  0.97155979    -0.17300
C1389       C  0.89501091  0.03901938  0.96007495     0.11000
C1390       C  0.90234221  0.49564147  0.94661657    -0.06100
C1391       C  0.87314517  0.45948751  0.94588558    -0.17400
C1392       C  0.83747131  0.45558238  0.95753448     0.11000
S1393       S  0.92349381  0.09191827  0.96102637    -0.32300
S1394       S  0.80073719  0.40909484  0.95449242    -0.32300
H1395       H  0.76128737  0.43486383  0.95745730     0.29000
H1396       H  0.94398183  0.09048555  0.94469618     0.29000
H1397       H  0.85092484  0.06030463  0.98036321     0.19600
H1398       H  0.87900029  0.43318424  0.93650756     0.19600
C1399       C  0.56797970  0.49820422  0.94553228    -0.06200
C1400       C  0.58566699  0.45530682  0.94925750    -0.17300
C1401       C  0.62120990  0.44884143  0.96092131     0.11000
C1402       C  0.63899954  0.99573031  0.97135127    -0.06100
C1403       C  0.61490013  0.03688511  0.97081908    -0.17400
C1404       C  0.57941575  0.04457617  0.95929965     0.11000
S1405       S  0.64084381  0.39179750  0.96411818    -0.32300
S1406       S  0.55149494  0.09895048  0.96016600    -0.32300
H1407       H  0.53357906  0.09872394  0.94340880     0.29000
H1408       H  0.68586550  0.40186817  0.96056108     0.29000
H1409       H  0.57077294  0.42634597  0.94330421     0.19600
H1410       H  0.62312642  0.06343983  0.97970493     0.19600
C1411       C  0.90440679  0.45356795  0.11094856    -0.02600
C1412       C  0.88013697  0.41582736  0.11591044    -0.17300
C1413       C  0.85137848  0.41712301  0.13021594     0.11000
C1414       C  0.84756810  0.45677300  0.14006485    -0.06100
C1415       C  0.86798913  0.00724245  0.13304283    -0.17400
C1416       C  0.89818983  0.00441953  0.11933874     0.11000
S1417       S  0.82042057  0.36730649  0.13508349    -0.32300
S1418       S  0.92513733  0.05560839  0.11303453    -0.32300
H1419       H  0.96734093  0.03698081  0.10877147     0.29000
H1420       H  0.81246214  0.37632551  0.15261449     0.29000
H1421       H  0.88532199  0.38443830  0.10912454     0.19600
H1422       H  0.86158359  0.03942092  0.13914656     0.19600
C1423       C  0.56667994  0.45927718  0.11065639    -0.06200
C1424       C  0.57189399  0.01437138  0.11549481    -0.17300
C1425       C  0.59790982  0.02467137  0.12988199     0.11000
C1426       C  0.61956956  0.47432955  0.14009697    -0.06100
C1427       C  0.61323757  0.43058112  0.13414580    -0.17400
C1428       C  0.58685733  0.42271242  0.11957998     0.11000
S1429       S  0.60101912  0.08285162  0.13596888    -0.32300
S1430       S  0.57805870  0.36540077  0.11348078    -0.32300
H1431       H  0.57247094  0.37490414  0.09582225     0.29000
H1432       H  0.61098495  0.07552393  0.15351288     0.29000
H1433       H  0.55231865  0.04094647  0.10922297     0.19600
H1434       H  0.62934721  0.40247640  0.14082422     0.19600
C1435       C  0.83203638  0.97364287  0.04818231    -0.06200
C1436       C  0.86317295  0.00814554  0.04925906    -0.17300
C1437       C  0.89899469  0.00599420  0.06095860     0.11000
C1438       C  0.90461287  0.96802461  0.07188373    -0.06100
C1439       C  0.86825066  0.42772925  0.07094282    -0.17400
C1440       C  0.83185458  0.43141503  0.05946206     0.11000
S1441       S  0.93685897  0.05249267  0.06075040    -0.32300
S1442       S  0.78911838  0.38972103  0.06105194    -0.32300
H1443       H  0.75306093  0.41970939  0.05738824     0.29000
H1444       H  0.95467303  0.04586403  0.07735512     0.29000
H1445       H  0.86037453  0.03665729  0.04054515     0.19600
H1446       H  0.87097259  0.39871835  0.07936228     0.19600
C1447       C  0.63831702  0.97249881  0.04682577    -0.06200
C1448       C  0.60916696  0.42747418  0.04588780    -0.17300
C1449       C  0.57442882  0.42250396  0.05784406     0.11000
C1450       C  0.56660010  0.96325402  0.07048213    -0.06100
C1451       C  0.59397296  0.00084957  0.07103525    -0.17400
C1452       C  0.63016932  0.00540542  0.05967328     0.11000
S1453       S  0.53918218  0.37440406  0.05523807    -0.32300
S1454       S  0.66494949  0.05344094  0.06263747    -0.32300
H1455       H  0.70565497  0.02906996  0.06047047     0.29000
H1456       H  0.52226024  0.37290724  0.07215647     0.29000
H1457       H  0.61290017  0.40305065  0.03563093     0.19600
H1458       H  0.58670632  0.02734478  0.08019154     0.19600
C1459       C  0.52629782  0.45608659  0.08155124     0.02200
C1460       C  0.52755159  0.96044060  0.09964314     0.02200
C1461       C  0.98692339  0.95017743  0.10919929    -0.18300
C1462       C  0.94630419  0.95561158  0.10034099     0.02200
C1463       C  0.94342560  0.45068495  0.08144775     0.02200
C1464       C  0.48472018  0.45969975  0.07299983    -0.18300
H1465       H  0.48405772  0.46240783  0.05901521     0.04200
H1466       H  0.98653172  0.94828336  0.12322614     0.04200
O1467       O  0.78430872  0.94099225  0.02681509    -0.73000
O1468       O  0.68959192  0.95118257  0.98940099    -0.74000
O1469       O  0.78546173  0.95049660  0.99002401    -0.62600
O1470       O  0.68930851  0.94125108  0.02610169    -0.71000
O1471       O  0.68507835  0.50748697  0.02815401    -0.70600
O1472       O  0.78117364  0.51875615  0.99197546    -0.61800
O1473       O  0.68638053  0.51761103  0.99136534    -0.74300
O1474       O  0.78002190  0.50876200  0.02871509    -0.73100
Cu1475     Cu  0.73724147  0.94337251  0.00796745     1.04600
Cu1476     Cu  0.73304285  0.51572634  0.01015729     1.04300
C1477       C  0.79554651  0.47029549  0.03346676     0.93200
C1478       C  0.67308122  0.48219304  0.98385092     0.92300
C1479       C  0.79704157  0.48351436  0.98460815     0.84500
C1480       C  0.67212912  0.46866176  0.03278475     0.90700
N1481       N  0.66566015  0.00627448  0.18406617    -0.36700
N1482       N  0.73302036  0.99309118  0.15780170    -0.57200
N1483       N  0.80139065  0.98734360  0.18382008    -0.36700
N1484       N  0.73540348  0.00020291  0.21093661    -0.57200
C1485       C  0.64020782  0.99477676  0.17030592     0.26900
C1486       C  0.64066571  0.99980681  0.19840769     0.26900
C1487       C  0.82278578  0.96825008  0.17017143     0.26900
C1488       C  0.82476936  0.97554470  0.19817796     0.26900
C1489       C  0.69771213  0.00371031  0.14762756     0.35500
C1490       C  0.76931779  0.99286489  0.14747632     0.35500
C1491       C  0.69963937  0.01564929  0.22030983     0.35500
C1492       C  0.77355753  0.00914298  0.21992028     0.35500
C1493       C  0.59846601  0.98121117  0.17592203    -0.22000
C1494       C  0.59873389  0.98428998  0.19366087    -0.22000
C1495       C  0.85974573  0.94328793  0.17590670    -0.22000
C1496       C  0.86067181  0.94736315  0.19364734    -0.22000
C1497       C  0.71159405  0.01084640  0.13074409    -0.23000
C1498       C  0.75721241  0.00395684  0.13064616    -0.23000
C1499       C  0.71506795  0.03422081  0.23551024    -0.23000
C1500       C  0.76169108  0.03077500  0.23515807    -0.23000
C1501       C  0.65307701  0.99852404  0.15278855    -0.18400
C1502       C  0.65344752  0.01099785  0.21548451    -0.18400
C1503       C  0.81815693  0.99547563  0.21461198    -0.18400
C1504       C  0.81178250  0.97658700  0.15267700    -0.18400
H1505       H  0.57055855  0.97068329  0.16805368     0.14500
H1506       H  0.57094564  0.97641492  0.20208783     0.14500
H1507       H  0.88411355  0.92505153  0.16809959     0.14500
H1508       H  0.88620968  0.93315390  0.20215923     0.14500
H1509       H  0.69067137  0.49717035  0.12017336     0.12800
H1510       H  0.77872615  0.48707292  0.12006580     0.12800
H1511       H  0.69484316  0.04904443  0.24570641     0.12800
H1512       H  0.78403678  0.04269389  0.24507147     0.12800
H1513       H  0.69643063  0.02215315  0.18364032     0.26100
H1514       H  0.77661337  0.01258261  0.18318220     0.26100
C1515       C  0.52454331  0.01389187  0.93776274     0.02200
C1516       C  0.52391757  0.01300369  0.91953904     0.02200
C1517       C  0.98627680  0.01016926  0.91026196    -0.18300
C1518       C  0.94694824  0.00423637  0.91969003     0.02200
C1519       C  0.94835551  0.00589124  0.93790229     0.02200
C1520       C  0.99015093  0.00948732  0.94613271    -0.18300
H1521       H  0.48739028  0.49157801  0.95925395     0.04200
H1522       H  0.98471626  0.00997061  0.89623844     0.04200
N1523       N  0.80533487  0.98609963  0.83542927    -0.36700
N1524       N  0.73576455  0.97516959  0.86147369    -0.57200
N1525       N  0.66747416  0.98577942  0.83458830    -0.36700
N1526       N  0.73707837  0.99360448  0.80793823    -0.57200
C1527       C  0.83126299  0.97785232  0.84959950     0.26900
C1528       C  0.83293737  0.98543960  0.82149832     0.26900
C1529       C  0.64228657  0.99305967  0.84900664     0.26900
C1530       C  0.64190156  0.99870062  0.82083344     0.26900
C1531       C  0.77154439  0.97142367  0.87209186     0.35500
C1532       C  0.69926008  0.97308700  0.87169106     0.35500
C1533       C  0.77463366  0.99528681  0.79786295     0.35500
C1534       C  0.70024168  0.99451876  0.79740706     0.35500
C1535       C  0.87570414  0.97214799  0.84469637    -0.22000
C1536       C  0.87675606  0.97619034  0.82705204    -0.22000
C1537       C  0.60034584  0.01026700  0.84432783    -0.22000
C1538       C  0.60008277  0.01387740  0.82665488    -0.22000
C1539       C  0.75778675  0.96546449  0.88905019    -0.23000
C1540       C  0.71193213  0.96620890  0.88878683    -0.23000
C1541       C  0.76132353  0.99761562  0.78068430    -0.23000
C1542       C  0.71463755  0.99667095  0.78039274    -0.23000
C1543       C  0.81655129  0.97537012  0.86696468    -0.18400
C1544       C  0.82061831  0.99371327  0.80390074    -0.18400
C1545       C  0.65402830  0.99585581  0.80305494    -0.18400
C1546       C  0.65512128  0.98368036  0.86634174    -0.18400
H1547       H  0.90436372  0.96482484  0.85295831     0.14500
H1548       H  0.90676883  0.97248226  0.81925099     0.14500
H1549       H  0.57263406  0.01930837  0.85277912     0.14500
H1550       H  0.57210925  0.02658235  0.81897038     0.14500
H1551       H  0.77853519  0.96200746  0.90050111     0.12800
H1552       H  0.69047995  0.96420349  0.90004739     0.12800
H1553       H  0.78299445  0.99933808  0.76948267     0.12800
H1554       H  0.69369923  0.99823046  0.76895306     0.12800
H1555       H  0.77162274  0.99558091  0.83544444     0.26100
H1556       H  0.69842084  0.96895311  0.83399042     0.26100
N1557       N  0.50179134  0.68900463  0.68320088    -0.36700
N1558       N  0.50356124  0.75812750  0.65647814    -0.57200
N1559       N  0.50092176  0.82684823  0.68314167    -0.36700
N1560       N  0.49792996  0.75795076  0.71037765    -0.57200
C1561       C  0.49860760  0.66317428  0.66885089     0.26900
C1562       C  0.49486183  0.66213786  0.69708166     0.26900
C1563       C  0.51157792  0.85187585  0.66906794     0.26900
C1564       C  0.50761407  0.85263941  0.69724697     0.26900
C1565       C  0.50415524  0.72226600  0.64597740     0.35500
C1566       C  0.50436511  0.79426655  0.64600296     0.35500
C1567       C  0.49493872  0.72081566  0.72065294     0.35500
C1568       C  0.49514542  0.79508544  0.72059788     0.35500
C1569       C  0.49029767  0.61940969  0.67362760    -0.22000
C1570       C  0.48749408  0.61874428  0.69130419    -0.22000
C1571       C  0.52468829  0.89394196  0.67425836    -0.22000
C1572       C  0.52250192  0.89438427  0.69194544    -0.22000
C1573       C  0.50503852  0.73568397  0.62879158    -0.23000
C1574       C  0.50495574  0.78129537  0.62880214    -0.23000
C1575       C  0.49052831  0.73467475  0.73767392    -0.23000
C1576       C  0.49027865  0.78130915  0.73762100    -0.23000
C1577       C  0.50339288  0.67734738  0.65145468    -0.18400
C1578       C  0.49508812  0.67479558  0.71487132    -0.18400
C1579       C  0.49916309  0.84090806  0.71480283    -0.18400
C1580       C  0.50867097  0.83869923  0.65155448    -0.18400
H1581       H  0.48601939  0.59090392  0.66522625     0.14500
H1582       H  0.48031273  0.58930176  0.69895225     0.14500
H1583       H  0.53496475  0.92155283  0.66615316     0.14500
H1584       H  0.53107376  0.92253019  0.69998388     0.14500
H1585       H  0.50581881  0.71488195  0.61736729     0.12800
H1586       H  0.50655500  0.80231514  0.61738504     0.12800
H1587       H  0.48740350  0.71341604  0.74896824     0.12800
H1588       H  0.48756897  0.80260731  0.74887487     0.12800
H1589       H  0.51160428  0.72206539  0.68357572     0.26100
H1590       H  0.48552127  0.79596110  0.68304119     0.26100
C1591       C  0.51640548  0.54763179  0.59742443     0.02200
C1592       C  0.51206413  0.54733454  0.57922847     0.02200
C1593       C  0.51947001  0.00877282  0.57060342    -0.18300
C1594       C  0.52130291  0.96754268  0.57944028     0.02200
C1595       C  0.52805371  0.96735295  0.59745848     0.02200
C1596       C  0.53204799  0.00775559  0.60617395    -0.18300
H1597       H  0.53596867  0.00727663  0.62013851     0.04200
H1598       H  0.51579669  0.00898703  0.55665638     0.04200
O1599       O  0.55726874  0.80521856  0.52496507    -0.73000
O1600       O  0.55642404  0.71003871  0.48847159    -0.74000
O1601       O  0.55777205  0.80473337  0.48805325    -0.62600
O1602       O  0.55549316  0.71003660  0.52535215    -0.71000
O1603       O  0.97973575  0.71131101  0.52554338    -0.70600
O1604       O  0.98234448  0.80560515  0.48862556    -0.61800
O1605       O  0.97906974  0.71131070  0.48876032    -0.74300
O1606       O  0.98329913  0.80515111  0.52552901    -0.73100
Cu1607     Cu  0.55932561  0.75746616  0.50672480     1.04600
Cu1608     Cu  0.97859687  0.75856456  0.50710174     1.04300
C1609       C  0.52025809  0.82053887  0.53118034     0.93200
C1610       C  0.51914725  0.69729771  0.48215206     0.92300
C1611       C  0.52091134  0.82130208  0.48203775     0.84500
C1612       C  0.51774715  0.69613413  0.53085944     0.90700
C1613       C  0.98511341  0.00515380  0.75911884    -0.02600
C1614       C  0.52973027  0.55165986  0.43328950     0.02200
C1615       C  0.53310000  0.55090091  0.41509676     0.02200
C1616       C  0.54075607  0.00851027  0.40655578    -0.18300
C1617       C  0.53575190  0.96801770  0.41535563     0.02200
C1618       C  0.53120975  0.96799974  0.43349320     0.02200
C1619       C  0.53435395  0.00888026  0.44229888    -0.18300
H1620       H  0.53206728  0.00905494  0.45629034     0.04200
H1621       H  0.54287970  0.00831808  0.39253959     0.04200
N1622       N  0.51789947  0.69293916  0.32940362    -0.36700
N1623       N  0.53440712  0.75907944  0.35512130    -0.57200
N1624       N  0.51046132  0.82857215  0.33107963    -0.36700
N1625       N  0.49402268  0.76289751  0.30425511    -0.57200
C1626       C  0.51791259  0.66759599  0.34403990     0.26900
C1627       C  0.49770371  0.66887552  0.31698433     0.26900
C1628       C  0.50069602  0.84743120  0.34657418     0.26900
C1629       C  0.48416371  0.84956406  0.31919215     0.26900
C1630       C  0.55017534  0.72298820  0.36381923     0.35500
C1631       C  0.54391763  0.79478513  0.36484041     0.35500
C1632       C  0.48841566  0.72689927  0.29391268     0.35500
C1633       C  0.48646074  0.80036959  0.29451138     0.35500
C1634       C  0.49783620  0.62707257  0.34082121    -0.22000
C1635       C  0.48495425  0.62805108  0.32378055    -0.22000
C1636       C  0.46715234  0.88001639  0.34458258    -0.22000
C1637       C  0.45533588  0.88001846  0.32737100    -0.22000
C1638       C  0.57127601  0.73577650  0.37893870    -0.23000
C1639       C  0.56730809  0.78154599  0.37959777    -0.23000
C1640       C  0.47504861  0.74144929  0.27763959    -0.23000
C1641       C  0.47187868  0.78768164  0.27828132    -0.23000
C1642       C  0.53710140  0.67941052  0.36005770    -0.18400
C1643       C  0.49256435  0.68131574  0.29939445    -0.18400
C1644       C  0.48959039  0.84496285  0.30106227    -0.18400
C1645       C  0.52346398  0.83694980  0.36212215    -0.18400
H1646       H  0.49288489  0.59969244  0.34980666     0.14500
H1647       H  0.46708398  0.60220704  0.31717889     0.14500
H1648       H  0.45274964  0.90160675  0.35441616     0.14500
H1649       H  0.43033003  0.90193810  0.32132462     0.14500
H1650       H  0.58506282  0.71430298  0.38904229     0.12800
H1651       H  0.57730861  0.80205882  0.39036730     0.12800
H1652       H  0.46617928  0.72107014  0.26668873     0.12800
H1653       H  0.45806626  0.80902320  0.26817327     0.12800
H1654       H  0.53474276  0.72273761  0.32745124     0.26100
H1655       H  0.53735532  0.80660559  0.32836096     0.26100
C1656       C  0.98340720  0.01248843  0.25928849    -0.02600
C1657       C  0.48913232  0.97272614  0.27127659    -0.06200
C1658       C  0.99076744  0.92735808  0.26379569    -0.17300
C1659       C  0.00059412  0.88758039  0.27314633     0.11000
C1660       C  0.49411528  0.88793324  0.28999167    -0.06100
C1661       C  0.49652693  0.92986067  0.29831827    -0.17400
C1662       C  0.49167392  0.97115330  0.28977671     0.11000
S1663       S  0.03738057  0.84833086  0.26200912    -0.32300
S1664       S  0.48392385  0.01712773  0.30464100    -0.32300
H1665       H  0.44122318  0.53622857  0.29566742     0.29000
H1666       H  0.55768681  0.83358525  0.27498387     0.29000
H1667       H  0.99366629  0.92616056  0.24984020     0.19600
H1668       H  0.50270972  0.93154197  0.31200690     0.19600
C1669       C  0.49131524  0.64341837  0.28666405    -0.06200
C1670       C  0.95388419  0.63226345  0.27971087    -0.17300
C1671       C  0.94921188  0.59407637  0.26914454     0.11000
C1672       C  0.48276203  0.56087316  0.26770591    -0.06100
C1673       C  0.52313045  0.57267018  0.27622576    -0.17400
C1674       C  0.52808464  0.61310249  0.28503061     0.11000
S1675       S  0.89875800  0.59429206  0.25610466    -0.32300
S1676       S  0.58230038  0.62327679  0.29453867    -0.32300
H1677       H  0.57892835  0.67033939  0.29342947     0.29000
H1678       H  0.88720708  0.64016615  0.25751143     0.29000
H1679       H  0.92585825  0.65572424  0.28126557     0.19600
H1680       H  0.55153760  0.54932783  0.27643308     0.19600
C1681       C  0.53507427  0.92759794  0.40454711    -0.06200
C1682       C  0.99548509  0.89934796  0.40348086    -0.17300
C1683       C  0.99309797  0.86796826  0.39015693     0.11000
C1684       C  0.52493220  0.86949391  0.37643836    -0.06100
C1685       C  0.56623557  0.88953129  0.37956902    -0.17400
C1686       C  0.57209859  0.91720881  0.39376511     0.11000
S1687       S  0.94366579  0.83410211  0.38915302    -0.32300
S1688       S  0.62724966  0.93975826  0.39709728    -0.32300
H1689       H  0.62341995  0.46259381  0.41442115     0.29000
H1690       H  0.96312076  0.79768659  0.38021933     0.29000
H1691       H  0.96704270  0.90415988  0.41207660     0.19600
H1692       H  0.59450901  0.88253897  0.37108112     0.19600
C1693       C  0.53717819  0.64705291  0.37458934    -0.06200
C1694       C  0.99802854  0.64307750  0.38638026    -0.17300
C1695       C  0.99348768  0.61380967  0.40044068     0.11000
C1696       C  0.53554341  0.59079135  0.40384738    -0.06100
C1697       C  0.57504754  0.59498928  0.39404409    -0.17400
C1698       C  0.57605200  0.62213018  0.37932622     0.11000
S1699       S  0.93915138  0.61210064  0.41075255    -0.32300
S1700       S  0.62767682  0.62323723  0.36711683    -0.32300
H1701       H  0.60817984  0.63391874  0.35102782     0.29000
H1702       H  0.94455978  0.05968417  0.41414302     0.29000
H1703       H  0.96964778  0.66431198  0.38252004     0.19600
H1704       H  0.60448587  0.57444006  0.39724176     0.19600
C1705       C  0.52151666  0.85551070  0.46804923    -0.06200
C1706       C  0.98355820  0.88265706  0.46729832    -0.17300
C1707       C  0.98281012  0.91777475  0.45530097     0.11000
C1708       C  0.52395276  0.92665840  0.44380144    -0.06100
C1709       C  0.55645899  0.89182277  0.44335565    -0.17400
C1710       C  0.55527174  0.85590577  0.45515561     0.11000
S1711       S  0.93347866  0.95423710  0.45481566    -0.32300
S1712       S  0.59623383  0.81041775  0.45324992    -0.32300
H1713       H  0.61875440  0.82696056  0.43865105     0.29000
H1714       H  0.93690529  0.96596935  0.43723919     0.29000
H1715       H  0.95556647  0.87987265  0.47616549     0.19600
H1716       H  0.58368228  0.89359228  0.43413373     0.19600
C1717       C  0.51951387  0.66248167  0.46844315    -0.06200
C1718       C  0.55901558  0.65576076  0.45865740    -0.17300
C1719       C  0.56302282  0.62116486  0.44652589     0.11000
C1720       C  0.52606632  0.59342192  0.44349905    -0.06100
C1721       C  0.97856566  0.59790005  0.45401762    -0.17400
C1722       C  0.97628092  0.63174793  0.46643124     0.11000
S1723       S  0.61694437  0.61300075  0.43618207    -0.32300
S1724       S  0.92446243  0.63708550  0.47838063    -0.32300
H1725       H  0.94587888  0.63526496  0.49461015     0.29000
H1726       H  0.61459821  0.56638079  0.43398981     0.29000
H1727       H  0.58773476  0.67668526  0.46087208     0.19600
H1728       H  0.94947783  0.57731309  0.45197189     0.19600
C1729       C  0.52013096  0.85474851  0.54515110    -0.06200
C1730       C  0.98119467  0.87473032  0.54949813    -0.17300
C1731       C  0.97944746  0.90842329  0.56193570     0.11000
C1732       C  0.51801838  0.92582924  0.56929231    -0.06100
C1733       C  0.55653467  0.89831925  0.56756066    -0.17400
C1734       C  0.55788273  0.86262837  0.55587162     0.11000
S1735       S  0.92566347  0.93593082  0.56574605    -0.32300
S1736       S  0.60865680  0.82853409  0.55557962    -0.32300
H1737       H  0.58551470  0.78800982  0.55515866     0.29000
H1738       H  0.93498568  0.95085144  0.58254310     0.29000
H1739       H  0.95072179  0.86769093  0.54243441     0.19600
H1740       H  0.58625796  0.90541040  0.57507644     0.19600
C1741       C  0.50927437  0.58900415  0.56857856    -0.06200
C1742       C  0.54556093  0.61822221  0.56910990    -0.17300
C1743       C  0.54940112  0.65363109  0.55716099     0.11000
C1744       C  0.51576792  0.66043940  0.54436786    -0.06100
C1745       C  0.97538571  0.63461000  0.54664102    -0.17400
C1746       C  0.97144910  0.59991236  0.55866264     0.11000
S1747       S  0.59722806  0.68967806  0.55864020    -0.32300
S1748       S  0.92037238  0.56836224  0.55786994    -0.32300
H1749       H  0.92344372  0.54946302  0.57445981     0.29000
H1750       H  0.61987061  0.66628263  0.57200371     0.29000
H1751       H  0.57199272  0.61200664  0.57850072     0.19600
H1752       H  0.94824317  0.64041471  0.53748573     0.19600
C1753       C  0.51329509  0.87281599  0.63774608    -0.06200
C1754       C  0.55665092  0.88382445  0.63232367    -0.17300
C1755       C  0.56283396  0.91152959  0.61789692     0.11000
C1756       C  0.52502068  0.92732277  0.60848633    -0.06100
C1757       C  0.00050919  0.89470334  0.61251744    -0.17400
C1758       C  0.99996807  0.86576285  0.62676046     0.11000
S1759       S  0.61869293  0.92811051  0.61183651    -0.32300
S1760       S  0.95077564  0.83227316  0.62969754    -0.32300
H1761       H  0.95235464  0.83044153  0.64782755     0.29000
H1762       H  0.64164783  0.90549824  0.62532013     0.29000
H1763       H  0.58544315  0.87061090  0.63943693     0.19600
H1764       H  0.97087152  0.89800046  0.60442300     0.19600
C1765       C  0.50701481  0.64325276  0.63763533    -0.06200
C1766       C  0.98426594  0.63594180  0.63073338    -0.17300
C1767       C  0.46996994  0.60301533  0.61452260     0.11000
C1768       C  0.51228235  0.58777108  0.60835422    -0.06100
C1769       C  0.55149865  0.60169268  0.61663414    -0.17400
C1770       C  0.54934764  0.62887824  0.63124914     0.11000
S1771       S  0.92568212  0.60108286  0.60719181    -0.32300
S1772       S  0.60181865  0.64441969  0.64101169    -0.32300
H1773       H  0.58559161  0.64973095  0.65792667     0.29000
H1774       H  0.93008016  0.55423110  0.60563000     0.29000
H1775       H  0.95460457  0.65374979  0.63547207     0.19600
H1776       H  0.58398438  0.58898181  0.61227048     0.19600
C1777       C  0.49591820  0.88052369  0.72713742    -0.06200
C1778       C  0.96132080  0.90616813  0.72643671    -0.17300
C1779       C  0.95772233  0.94875996  0.73452232     0.11000
C1780       C  0.99183362  0.96330307  0.74620286    -0.06100
C1781       C  0.52976436  0.93495368  0.74661518    -0.17400
C1782       C  0.53178661  0.89347744  0.73781118     0.11000
S1783       S  0.90888715  0.98316598  0.72945629    -0.32300
S1784       S  0.58233496  0.85941338  0.74035585    -0.32300
H1785       H  0.58230897  0.84027870  0.72381003     0.29000
H1786       H  0.88577755  0.95202241  0.71940397     0.29000
H1787       H  0.93431950  0.89506211  0.71823444     0.19600
H1788       H  0.55977375  0.94347626  0.75351012     0.19600
C1789       C  0.49256634  0.63590998  0.72761301    -0.06200
C1790       C  0.95789056  0.62591964  0.73735796    -0.17300
C1791       C  0.94901498  0.58508475  0.74610140     0.11000
C1792       C  0.98293471  0.54908144  0.74694574    -0.06100
C1793       C  0.51955464  0.56093901  0.73666887    -0.17400
C1794       C  0.52729685  0.60287354  0.72882563     0.11000
S1795       S  0.89187156  0.58484215  0.75410786    -0.32300
S1796       S  0.58281180  0.61228211  0.72041239    -0.32300
H1797       H  0.58068013  0.65926065  0.72200237     0.29000
H1798       H  0.88256596  0.53980339  0.75173427     0.29000
H1799       H  0.93182975  0.65192641  0.73669965     0.19600
H1800       H  0.54764026  0.53723875  0.73722297     0.19600
C1801       C  0.85982444  0.99831966  0.79144127    -0.06200
C1802       C  0.87269769  0.96145778  0.78134910    -0.17300
C1803       C  0.91458812  0.95866944  0.77271640     0.11000
C1804       C  0.94371747  0.99698958  0.77195468    -0.06100
C1805       C  0.93298158  0.53243343  0.78344249    -0.17400
C1806       C  0.89158681  0.53726233  0.79223760     0.11000
S1807       S  0.92910641  0.90151964  0.76685168    -0.32300
S1808       S  0.88521795  0.58467188  0.80650446    -0.32300
H1809       H  0.83828261  0.58931920  0.80472797     0.29000
H1810       H  0.97418469  0.90230965  0.77163016     0.29000
H1811       H  0.85146651  0.93238915  0.78157759     0.19600
H1812       H  0.95794803  0.55703694  0.78590925     0.19600
C1813       C  0.61476491  0.99734857  0.79033993    -0.06200
C1814       C  0.59080888  0.54812909  0.78285276    -0.17300
C1815       C  0.54816305  0.55056898  0.77459198     0.11000
C1816       C  0.53033082  0.00969306  0.77130265    -0.06100
C1817       C  0.53942012  0.97211965  0.78220509    -0.17400
C1818       C  0.58083693  0.96475747  0.79083255     0.11000
S1819       S  0.52222792  0.60605998  0.77320977    -0.32300
S1820       S  0.58806893  0.91265197  0.80257895    -0.32300
H1821       H  0.63524794  0.91050688  0.80140110     0.29000
H1822       H  0.56166469  0.63082735  0.77482219     0.29000
H1823       H  0.60708810  0.57871299  0.78657000     0.19600
H1824       H  0.51498872  0.94616155  0.78313827     0.19600
C1825       C  0.90621644  0.99632792  0.90942699    -0.06200
C1826       C  0.89926349  0.95244511  0.90367752    -0.17300
C1827       C  0.87106917  0.94415904  0.88961780     0.11000
C1828       C  0.84990736  0.98077035  0.88096776    -0.06100
C1829       C  0.86583758  0.54680049  0.88550852    -0.17400
C1830       C  0.89553682  0.54278429  0.89946221     0.11000
S1831       S  0.86403065  0.88646818  0.88342009    -0.32300
S1832       S  0.92160292  0.59354509  0.90663664    -0.32300
H1833       H  0.96044065  0.57424534  0.91405325     0.29000
H1834       H  0.84729849  0.89428284  0.86669508     0.29000
H1835       H  0.91787166  0.92469218  0.90959759     0.19600
H1836       H  0.85951016  0.57945930  0.87965940     0.19600
C1837       C  0.56366408  0.00482262  0.90856915    -0.06200
C1838       C  0.56877299  0.96197235  0.90130087    -0.17300
C1839       C  0.59713221  0.95435350  0.88717981     0.11000
C1840       C  0.62145416  0.99029959  0.88027405    -0.06100
C1841       C  0.58998751  0.55586382  0.88131333    -0.17400
C1842       C  0.56083766  0.55472826  0.89542595     0.11000
S1843       S  0.60091067  0.89813453  0.87869508    -0.32300
S1844       S  0.52243536  0.60203810  0.89807113    -0.32300
H1845       H  0.51260997  0.59461327  0.91557117     0.29000
H1846       H  0.61342903  0.90967726  0.86178623     0.29000
H1847       H  0.54863802  0.93477337  0.90611879     0.19600
H1848       H  0.58927319  0.58478729  0.87276471     0.19600
C1849       C  0.93975685  0.00458765  0.24765724    -0.06200
C1850       C  0.94091140  0.51172765  0.22942151    -0.17300
C1851       C  0.90128414  0.51331041  0.21944887     0.11000
C1852       C  0.85953044  0.00074053  0.22604255    -0.06100
C1853       C  0.85903901  0.98647480  0.24329232    -0.17400
C1854       C  0.89676234  0.99046258  0.25433163     0.11000
S1855       S  0.90576865  0.53798360  0.19816200    -0.32300
S1856       S  0.88622546  0.97893334  0.27688711    -0.32300
H1857       H  0.83898032  0.98241184  0.27642653     0.29000
H1858       H  0.86126751  0.55499735  0.19763689     0.29000
H1859       H  0.97155467  0.51773600  0.22259182     0.19600
H1860       H  0.82831344  0.97275046  0.24831767     0.19600
C1861       C  0.61563044  0.01601918  0.22840509    -0.06200
C1862       C  0.58265862  0.54528135  0.22545318    -0.17300
C1863       C  0.54148892  0.54809950  0.23472410     0.11000
C1864       C  0.53140770  0.01632961  0.24752473    -0.06100
C1865       C  0.56807068  0.98547643  0.25094071    -0.17400
C1866       C  0.60814761  0.98397488  0.24136864     0.11000
S1867       S  0.50527787  0.59675169  0.23065864    -0.32300
S1868       S  0.64840561  0.93956634  0.24638406    -0.32300
H1869       H  0.66110713  0.93098590  0.22920263     0.29000
H1870       H  0.53540701  0.62097317  0.22042296     0.29000
H1871       H  0.58899226  0.56907539  0.21517791     0.19600
H1872       H  0.56743702  0.96215470  0.26158972     0.19600
C1873       C  0.83140333  0.48776024  0.97080004    -0.06200
C1874       C  0.85985860  0.52467263  0.97118326    -0.17300
C1875       C  0.89490089  0.52908467  0.95928257     0.11000
C1876       C  0.90757826  0.00378691  0.94876528    -0.06100
C1877       C  0.88344726  0.96405780  0.94908192    -0.17400
C1878       C  0.84735585  0.95849267  0.96041306     0.11000
S1879       S  0.92961607  0.57751810  0.96143254    -0.32300
S1880       S  0.81806157  0.90657212  0.95882886    -0.32300
H1881       H  0.77571357  0.92824007  0.95861674     0.29000
H1882       H  0.94389089  0.57861401  0.94419266     0.29000
H1883       H  0.85554556  0.54988681  0.98112263     0.19600
H1884       H  0.89333783  0.93670248  0.94063971     0.19600
C1885       C  0.56658464  0.01015467  0.94797028    -0.06200
C1886       C  0.59110127  0.96943072  0.94803116    -0.17300
C1887       C  0.62734078  0.96199893  0.95937494     0.11000
C1888       C  0.63904464  0.48626034  0.96967266    -0.06100
C1889       C  0.62235932  0.52945880  0.96520295    -0.17400
C1890       C  0.58700936  0.53576912  0.95342413     0.11000
S1891       S  0.65714210  0.90904380  0.95763829    -0.32300
S1892       S  0.56723730  0.59253844  0.94943240    -0.32300
H1893       H  0.52202977  0.58266744  0.94659061     0.29000
H1894       H  0.69932921  0.92902974  0.95785006     0.29000
H1895       H  0.58129787  0.94279740  0.93943318     0.19600
H1896       H  0.63578182  0.55879675  0.97137609     0.19600
C1897       C  0.90642937  0.96259131  0.11128005    -0.02600
C1898       C  0.88362820  0.92471353  0.11707688    -0.17300
C1899       C  0.85269841  0.92775358  0.13066869     0.11000
C1900       C  0.84580761  0.96935598  0.13903698    -0.06100
C1901       C  0.87107555  0.49467919  0.13493871    -0.17400
C1902       C  0.89940397  0.49366677  0.12057872     0.11000
S1903       S  0.82451961  0.87717469  0.13689303    -0.32300
S1904       S  0.92830377  0.54488569  0.11566406    -0.32300
H1905       H  0.96308744  0.52741671  0.10538637     0.29000
H1906       H  0.78852972  0.89704590  0.14599265     0.29000
H1907       H  0.89108304  0.89230185  0.11133802     0.19600
H1908       H  0.86678071  0.52562419  0.14211690     0.19600
C1909       C  0.56764810  0.96986362  0.10996914    -0.06200
C1910       C  0.57391229  0.50308439  0.11644589    -0.17300
C1911       C  0.59994110  0.51099729  0.13107200     0.11000
C1912       C  0.62037822  0.98967627  0.13893713    -0.06100
C1913       C  0.61748187  0.94539439  0.13306712    -0.17400
C1914       C  0.59138991  0.93517632  0.11868298     0.11000
S1915       S  0.60720608  0.56848121  0.13746218    -0.32300
S1916       S  0.58771242  0.87723252  0.11254344    -0.32300
H1917       H  0.58014933  0.88631091  0.09496065     0.29000
H1918       H  0.61361381  0.55988074  0.15516786     0.29000
H1919       H  0.55675573  0.53118634  0.11014017     0.19600
H1920       H  0.63599369  0.91870040  0.13970545     0.19600
C1921       C  0.82966524  0.46724004  0.04739704    -0.06200
C1922       C  0.86234308  0.50027964  0.04808192    -0.17300
C1923       C  0.89812884  0.49721383  0.05978102     0.11000
C1924       C  0.90192488  0.45990030  0.07117457    -0.06100
C1925       C  0.87232159  0.93444313  0.07141638    -0.17400
C1926       C  0.83573172  0.93726196  0.05996945     0.11000
S1927       S  0.93855667  0.54138727  0.05886213    -0.32300
S1928       S  0.79448461  0.89407139  0.06136740    -0.32300
H1929       H  0.75740232  0.92312480  0.05812133     0.29000
H1930       H  0.95345864  0.53696978  0.07596847     0.29000
H1931       H  0.86083993  0.52814290  0.03902694     0.19600
H1932       H  0.87616293  0.90527858  0.07973209     0.19600
C1933       C  0.63813402  0.46390150  0.04664170    -0.06200
C1934       C  0.61112329  0.93461714  0.04647136    -0.17300
C1935       C  0.57571786  0.92949351  0.05811504     0.11000
C1936       C  0.56759162  0.45519433  0.07084792    -0.06100
C1937       C  0.59739396  0.49081024  0.07198380    -0.17400
C1938       C  0.63313146  0.49487786  0.06036005     0.11000
S1939       S  0.54277010  0.87963967  0.05596753    -0.32300
S1940       S  0.67161592  0.53961476  0.06407478    -0.32300
H1941       H  0.71027780  0.51369738  0.05995050     0.29000
H1942       H  0.52505617  0.87892479  0.07277448     0.29000
H1943       H  0.61683912  0.90898301  0.03678658     0.19600
H1944       H  0.59226452  0.51635172  0.08170461     0.19600
loop_ 
_geom_bond_atom_site_label_1 
_geom_bond_atom_site_label_2 
_geom_bond_distance 
_geom_bond_site_symmetry_2 
_ccdc_geom_bond_type 
C1            C6   1.406   1_455  A
C1          C488   1.414       .  A
C1          C478   1.482       .  S
C2          C487   1.411       .  A
C2          C975   1.392   1_455  A
C2          C451   1.474       .  S
C3            C4   1.393       .  A
C3          C974   1.392       .  A
C3            H8   1.087       .  S
C4          C491   1.412       .  A
C4          C439   1.469       .  S
C5          C490   1.414       .  A
C5          C978   1.405       .  A
C5          C466   1.477       .  S
C6          C977   1.405       .  A
C6            H7   1.085       .  S
O9          Cu17   2.009       .  S
O9          C505   1.278       .  A
O10         Cu17   2.014   1_556  S
O10         C506   1.277       .  A
O11         Cu17   2.007   1_556  S
O11         C507   1.277       .  A
O12         Cu17   2.006       .  S
O12         C508   1.278       .  A
O13         Cu18   2.009       .  S
O13          C22   1.278   1_545  A
O14         Cu18   2.009   1_556  S
O14          C21   1.278       .  A
O15         Cu18   2.007   1_556  S
O15          C20   1.279   1_545  A
O16         Cu18   2.008       .  S
O16          C19   1.278   1_545  A
Cu17       Cu504   2.367       .  S
Cu18       Cu503   2.368   1_545  S
C19         C463   1.477       .  S
C19         O495   1.277       .  A
C20         C430   1.492   1_565  S
C20         O496   1.276       .  A
C21         C415   1.481       .  S
C21         O497   1.278   1_545  A
C22         C475   1.484       .  S
C22         O498   1.278       .  A
N23          C28   1.352       .  A
N23          C27   1.358       .  A
N23          H55   1.040       .  S
N24          C31   1.344       .  A
N24          C32   1.344       .  A
N25          C30   1.351       .  A
N25          C29   1.353       .  A
N25          H56   1.042       .  S
N26          C33   1.360       .  A
N26          C34   1.363       .  A
C27          C35   1.384       .  A
C27          C43   1.416       .  A
C28          C44   1.421       .  A
C28          C36   1.391       .  A
C29          C37   1.384       .  A
C29          C46   1.408       .  A
C30          C45   1.417       .  A
C30          C38   1.390       .  A
C31          C43   1.400       .  A
C31          C39   1.388       .  A
C32          C46   1.399       .  A
C32          C40   1.386       .  A
C33          C41   1.386       .  A
C33          C44   1.435       .  A
C34          C42   1.388       .  A
C34          C45   1.439       .  A
C35          C36   1.377       .  A
C35          H47   1.082       .  S
C36          H48   1.082       .  S
C37          C38   1.378       .  A
C37          H49   1.082       .  S
C38          H50   1.082       .  S
C39          C40   1.368       .  A
C39         H537   1.082       .  S
C40         H538   1.082       .  S
C41          C42   1.388       .  A
C41          H53   1.082       .  S
C42          H54   1.082       .  S
C43         C454   1.480       .  S
C44         C403   1.512       .  S
C45         C394   1.526       .  S
C46         C442   1.474       .  S
H51         C525   1.082   1_545  S
H52         C526   1.082       .  S
C57          C58   1.412       .  A
C57        C1034   1.404   1_455  A
C57         C427   1.477       .  S
C58        C1031   1.395   1_455  A
C58         C379   1.476       .  S
C59          C60   1.394       .  A
C59        C1030   1.396       .  A
C59          H64   1.086       .  S
C60          C61   1.411       .  A
C60         C367   1.472       .  S
C61          C62   1.403       .  A
C61         C418   1.479       .  S
C62        C1029   1.402       .  A
C62        H1521   1.085       .  S
H63        C1520   1.085       .  S
N65          C70   1.354       .  A
N65          C69   1.358       .  A
N65          H97   1.035       .  S
N66          C73   1.345       .  A
N66          C74   1.345       .  A
N67          C72   1.354       .  A
N67          C71   1.357       .  A
N67          H98   1.040       .  S
N68          C75   1.364       .  A
N68          C76   1.365       .  A
C69          C77   1.383       .  A
C69          C85   1.418       .  A
C70          C86   1.427       .  A
C70          C78   1.393       .  A
C71          C79   1.385       .  A
C71          C88   1.416       .  A
C72          C87   1.419       .  A
C72          C80   1.389       .  A
C73          C85   1.403       .  A
C73          C81   1.387       .  A
C74          C88   1.401       .  A
C74          C82   1.386       .  A
C75          C83   1.388       .  A
C75          C86   1.443       .  A
C76          C84   1.386       .  A
C76          C87   1.439       .  A
C77          C78   1.371       .  A
C77          H89   1.083       .  S
C78          H90   1.080       .  S
C79          C80   1.373       .  A
C79          H91   1.082       .  S
C80          H92   1.082       .  S
C81          C82   1.366       .  A
C81          H93   1.082       .  S
C82          H94   1.082       .  S
C83          C84   1.390       .  A
C83          H95   1.082       .  S
C84          H96   1.082       .  S
C85         C370   1.482       .  S
C86         C343   1.517       .  S
C87         C355   1.522       .  S
C88         C382   1.479       .  S
N99         C104   1.354       .  A
N99         C103   1.357       .  A
N99         H131   1.039   1_655  S
N100        C107   1.345       .  A
N100        C108   1.345       .  A
N101        C106   1.355       .  A
N101        C105   1.359       .  A
N101        H132   1.036   1_455  S
N102        C109   1.365       .  A
N102        C110   1.365       .  A
C103        C111   1.383       .  A
C103        C119   1.412   1_655  A
C104        C120   1.423       .  A
C104        C112   1.391       .  A
C105        C113   1.382       .  A
C105        C122   1.415       .  A
C106        C121   1.428   1_455  A
C106        C114   1.393       .  A
C107        C119   1.401       .  A
C107        C115   1.388       .  A
C108        C122   1.401       .  A
C108        C116   1.387       .  A
C109        C117   1.387       .  A
C109        C120   1.445       .  A
C110        C118   1.387       .  A
C110        C121   1.446       .  A
C111        C112   1.370       .  A
C111        H123   1.082       .  S
C112        H124   1.082       .  S
C113        C114   1.369       .  A
C113        H125   1.082       .  S
C114        H126   1.082       .  S
C115        C116   1.360       .  A
C115        H127   1.082       .  S
C116        H128   1.082       .  S
C117        C118   1.391       .  A
C117        H129   1.082       .  S
C118        H130   1.082       .  S
C119        C307   1.476       .  S
C120        C331   1.524       .  S
C121        C319   1.524       .  S
C122        C295   1.479       .  S
C133        C134   1.412       .  A
C133        C624   1.392       .  A
C133        C310   1.466       .  S
C134        C621   1.405       .  A
C134        C283   1.487       .  S
C135        C136   1.403       .  A
C135        C620   1.408       .  A
C135        H140   1.085       .  S
C136        C137   1.406       .  A
C136        C274   1.478       .  S
C137        C138   1.390       .  A
C137        C298   1.467       .  S
C138        C619   1.392       .  A
C138        H139   1.087       .  S
O141       Cu149   2.008       .  S
O141        C151   1.277       .  A
O142       Cu149   2.008       .  S
O142        C152   1.278       .  A
O143       Cu149   2.014       .  S
O143        C153   1.278       .  A
O144       Cu149   2.017       .  S
O144        C154   1.278       .  A
O145       Cu150   1.997       .  S
O145       C1126   1.277       .  A
O146       Cu150   1.999       .  S
O146       C1125   1.277       .  A
O147       Cu150   2.002       .  S
O147       C1124   1.276       .  A
O148       Cu150   2.002       .  S
O148       C1123   1.278       .  A
Cu149     Cu1122   2.366   1_455  S
Cu150     Cu1121   2.365       .  S
C151        C271   1.490       .  S
C151       O1120   1.279   1_455  A
C152        C259   1.487       .  S
C152       O1119   1.277   1_455  A
C153        C247   1.486       .  S
C153       O1118   1.278   1_455  A
C154        C286   1.485       .  S
C154       O1117   1.278   1_455  A
C155        C322   1.614       .  S
C155        C346   1.592       .  S
C155        C820   1.606       .  S
C155       C1330   1.612       .  S
C156        C157   1.411       .  A
C156        C647   1.405       .  A
C156        C262   1.479       .  S
C157        C644   1.393       .  A
C157        C238   1.472       .  S
C158        C159   1.395       .  A
C158        C643   1.393       .  A
C158        H163   1.086       .  S
C159        C160   1.409       .  A
C159        C223   1.471       .  S
C160        C161   1.406       .  A
C160        C250   1.485       .  S
C161        C642   1.407       .  A
C161        H162   1.085       .  S
N164        C169   1.351   1_455  A
N164        C168   1.359       .  A
N164        H196   1.041       .  S
N165        C172   1.341       .  A
N165        C173   1.341       .  A
N166        C171   1.350   1_455  A
N166        C170   1.356       .  A
N166        H197   1.044       .  S
N167        C174   1.356       .  A
N167        C175   1.360       .  A
C168        C176   1.384   1_455  A
C168        C184   1.416       .  A
C169        C185   1.416       .  A
C169        C177   1.385       .  A
C170        C178   1.384   1_455  A
C170        C187   1.411       .  A
C171        C186   1.420       .  A
C171        C179   1.389       .  A
C172        C184   1.398       .  A
C172        C180   1.387       .  A
C173        C187   1.397       .  A
C173        C181   1.387       .  A
C174        C182   1.385       .  A
C174        C185   1.425       .  A
C175        C183   1.386       .  A
C175        C186   1.432       .  A
C176        C177   1.373       .  A
C176        H188   1.082       .  S
C177        H189   1.078       .  S
C178        C179   1.377       .  A
C178        H190   1.082       .  S
C179        H191   1.083       .  S
C180        C181   1.369       .  A
C180        H192   1.082       .  S
C181        H193   1.082       .  S
C182        C183   1.380       .  A
C182        H194   1.081       .  S
C183        H195   1.080       .  S
C184        C235   1.481       .  S
C185        C211   1.503       .  S
C186        C202   1.550       .  S
C187        C226   1.476       .  S
C198        C391   1.599       .  S
C198       C1171   1.590       .  S
C198       C1672   1.587       .  S
C198       C1378   1.620       .  S
C199        C204   1.436       .  A
C199       C1172   1.424       .  A
C199       C1170   1.591       .  S
C200        C201   1.410       .  A
C200       C1171   1.423       .  A
C200        H209   1.084       .  S
C201       C1174   1.422       .  A
C201        S205   1.807       .  S
C202        C203   1.412       .  A
C202       C1173   1.421       .  A
C203        C204   1.401       .  A
C203        H210   1.075       .  S
C204        S206   1.804       .  S
S205       H1180   1.407       .  S
S206        H693   1.399       .  S
H207        S692   1.400       .  S
H208       S1177   1.407       .  S
C211        C216   1.408   1_655  A
C211       C1184   1.396       .  A
C212        C213   1.412       .  A
C212       C1183   1.396       .  A
C212        H221   1.083       .  S
C213       C1186   1.446       .  A
C213        S217   1.805       .  S
C214        C215   1.423   1_655  A
C214       C1185   1.448       .  A
C214       C1656   1.587       .  S
C215        C216   1.398       .  A
C215        H222   1.082       .  S
C216        S218   1.805       .  S
S217        H220   1.407       .  S
S218        H219   1.407       .  S
C223        C228   1.412       .  A
C223       C1196   1.402   1_455  A
C224        C225   1.400       .  A
C224       C1195   1.401       .  A
C224        H233   1.084       .  S
C225       C1198   1.416       .  A
C225        S229   1.805       .  S
C226        C227   1.399       .  A
C226       C1197   1.415   1_455  A
C227        C228   1.390       .  A
C227        H234   1.084       .  S
C228        S230   1.806       .  S
S229        H232   1.403       .  S
S230        H717   1.406       .  S
H231        S716   1.407       .  S
C235        C240   1.409       .  A
C235       C1208   1.405   1_455  A
C236        C237   1.398       .  A
C236       C1207   1.404       .  A
C236        H245   1.084       .  S
C237       C1210   1.411       .  A
C237        S241   1.804       .  S
C238        C239   1.405       .  A
C238       C1209   1.411   1_455  A
C239        C240   1.395       .  A
C239        H246   1.084       .  S
C240        S242   1.805       .  S
S241        H730   1.405       .  S
S242        H243   1.405       .  S
H244        S727   1.404       .  S
C247        C252   1.417       .  A
C247       C1220   1.405   1_455  A
C248        C249   1.395       .  A
C248       C1219   1.405       .  A
C248        H257   1.084       .  S
C249       C1222   1.412       .  A
C249        S253   1.806       .  S
C250        C251   1.403       .  A
C250       C1221   1.412   1_455  A
C251        C252   1.405       .  A
C251        H258   1.082       .  S
C252        S254   1.807       .  S
S253        H256   1.407       .  S
S254        H255   1.407       .  S
C259        C260   1.408       .  A
C259       C1236   1.417   1_455  A
C260        C261   1.401       .  A
C260        H269   1.084       .  S
C261        C262   1.412       .  A
C261        S265   1.804       .  S
C262       C1235   1.403   1_455  A
C263        C264   1.395       .  A
C263       C1234   1.402       .  A
C263        H270   1.085       .  S
C264       C1231   1.418       .  A
C264        S266   1.803       .  S
S265        H268   1.405       .  S
S266        H267   1.408       .  S
C271        C276   1.420       .  A
C271       C1244   1.408   1_455  A
C272        C273   1.396       .  A
C272       C1243   1.407       .  A
C272        H281   1.083       .  S
C273       C1246   1.411       .  A
C273        S277   1.805       .  S
C274        C275   1.400       .  A
C274       C1245   1.410   1_455  A
C275        C276   1.399       .  A
C275        H282   1.083       .  S
C276        S278   1.800       .  S
S277        H280   1.406       .  S
S278        H279   1.405       .  S
C283        C284   1.404       .  A
C283       C1260   1.416   1_455  A
C284        C285   1.405       .  A
C284        H293   1.082       .  S
C285        C286   1.416       .  A
C285        S289   1.806       .  S
C286       C1259   1.404   1_455  A
C287        C288   1.394       .  A
C287       C1258   1.405       .  A
C287        H294   1.084       .  S
C288       C1255   1.414       .  A
C288        S290   1.807       .  S
S289        H292   1.407       .  S
S290        H291   1.400       .  S
C295        C296   1.402       .  A
C295       C1272   1.411   1_455  A
C296        C297   1.400       .  A
C296        H305   1.083       .  S
C297        C298   1.410       .  A
C297        S301   1.806       .  S
C298       C1271   1.399   1_455  A
C299        C300   1.399       .  A
C299       C1270   1.399       .  A
C299        H306   1.084       .  S
C300       C1267   1.416       .  A
C300        S302   1.806       .  S
S301        H304   1.407       .  S
S302        H303   1.403       .  S
C307        C312   1.410       .  A
C307       C1280   1.400   1_455  A
C308       C1279   1.402       .  A
C308       C1281   1.397       .  A
C308        H317   1.084       .  S
C309        C310   1.412   1_655  A
C309       C1280   1.396       .  A
C309       S1285   1.802       .  S
C310        C311   1.402       .  A
C311        C312   1.393       .  A
C311        H318   1.084       .  S
C312        S314   1.804       .  S
S313       C1281   1.799       .  S
S313        H316   1.406       .  S
S314        H315   1.406       .  S
C319        C324   1.412   1_655  A
C319       C1292   1.408       .  A
C320        C321   1.420       .  A
C320       C1291   1.405       .  A
C320        H329   1.082       .  S
C321        C322   1.435       .  A
C321        S325   1.794       .  S
C322       C1295   1.425       .  A
C323        C324   1.416       .  A
C323       C1294   1.429   1_455  A
C323        H330   1.076       .  S
C324        S326   1.804       .  S
S325        H328   1.406       .  S
S326        H327   1.404       .  S
C331        C336   1.418   1_655  A
C331       C1304   1.399       .  A
C332        C333   1.419       .  A
C332       C1303   1.397       .  A
C332        H341   1.084       .  S
C333        C334   1.457       .  A
C333        S337   1.809       .  S
C334       C1307   1.422       .  A
C334        C641   1.607       .  S
C335        C336   1.411       .  A
C335       C1306   1.423   1_455  A
C335        H342   1.083       .  S
C336        S338   1.805       .  S
S337        H340   1.391       .  S
S338        H339   1.406       .  S
C343        C344   1.401       .  A
C343        C834   1.416       .  A
C344        C345   1.417       .  A
C344        H353   1.083       .  S
C345        C346   1.440       .  A
C345        S349   1.809       .  S
C346        C833   1.417       .  A
C347        C348   1.412       .  A
C347        C832   1.416       .  A
C347        H354   1.075       .  S
C348        C829   1.419       .  A
C348        S350   1.805       .  S
S349        H352   1.407       .  S
S350        H351   1.406       .  S
C355        C360   1.417       .  A
C355        C842   1.399       .  A
C356        C357   1.415       .  A
C356        C841   1.397       .  A
C356        H365   1.085       .  S
C357        C844   1.455       .  A
C357        S361   1.811       .  S
C358        C359   1.419       .  A
C358        C843   1.451       .  A
C358       C1127   1.616   1_455  S
C359        C360   1.412       .  A
C359        H366   1.076       .  S
C360        S362   1.804       .  S
S361        H364   1.391   1_455  S
S362        H363   1.406       .  S
C367        C368   1.404       .  A
C367        C858   1.408       .  A
C368        C369   1.397       .  A
C368        H377   1.084       .  S
C369        C370   1.410       .  A
C369        S373   1.803       .  S
C370        C857   1.403       .  A
C371        C372   1.395       .  A
C371        C856   1.400       .  A
C371        H378   1.084       .  S
C372        C853   1.412       .  A
C372        S374   1.798       .  S
S373        H376   1.405       .  S
S374        H375   1.401       .  S
C379        C380   1.406       .  A
C379        C870   1.410       .  A
C380        C381   1.399       .  A
C380        H389   1.084       .  S
C381        C382   1.410       .  A
C381        S385   1.806       .  S
C382        C869   1.400       .  A
C383        C384   1.395       .  A
C383        C868   1.397       .  A
C383        H390   1.084       .  S
C384        C865   1.419       .  A
C384        S386   1.809       .  S
S385        H388   1.404       .  S
S386        H387   1.403       .  S
C391        C396   1.449       .  A
C391        C878   1.414       .  A
C392        C393   1.405       .  A
C392        C877   1.414       .  A
C392        H401   1.070       .  S
C393        C880   1.418       .  A
C393        S397   1.807       .  S
C394        C395   1.398       .  A
C394        C879   1.423       .  A
C395        C396   1.415       .  A
C395        H402   1.082       .  S
C396        S398   1.804       .  S
S397        H400   1.407       .  S
S398        H399   1.408       .  S
C403        C408   1.404       .  A
C403        C890   1.407       .  A
C404        C405   1.419       .  A
C404        C889   1.406       .  A
C404        H413   1.082       .  S
C405        C892   1.440       .  A
C405        S409   1.814       .  S
C406        C407   1.432       .  A
C406        C891   1.439       .  A
C406       C1170   1.617   1_455  S
C407        C408   1.404       .  A
C407        H414   1.076       .  S
C408        S410   1.804       .  S
S409        H412   1.406       .  S
S410        H411   1.406       .  S
C415        C416   1.403       .  A
C415        C906   1.414   1_545  A
C416        C417   1.400       .  A
C416        H425   1.084       .  S
C417        C904   1.418       .  A
C417        S421   1.806       .  S
C418        C419   1.400       .  A
C418        C903   1.416       .  A
C419        C420   1.398       .  A
C419        H426   1.083       .  S
C420        C901   1.417       .  A
C420        S422   1.799       .  S
S421        H424   1.399       .  S
S422        H423   1.406       .  S
C427        C428   1.401       .  A
C427        C918   1.413       .  A
C428        C429   1.402       .  A
C428        H437   1.084       .  S
C429        C916   1.422       .  A
C429        S433   1.800       .  S
C430        C431   1.410       .  A
C430        C915   1.422   1_545  A
C431        C432   1.398       .  A
C431        H438   1.083       .  S
C432        C913   1.406       .  A
C432        S434   1.798       .  S
S433        H436   1.402       .  S
S434        H435   1.402       .  S
C439        C440   1.403       .  A
C439        C930   1.417       .  A
C440        C441   1.398       .  A
C440        H449   1.083       .  S
C441        C442   1.411       .  A
C441        S445   1.805       .  S
C442        C929   1.398       .  A
C443        C444   1.393       .  A
C443        C928   1.398   1_545  A
C443        H450   1.084       .  S
C444        C925   1.412   1_545  A
C444        S446   1.797       .  S
S445        H448   1.403       .  S
S446        H447   1.404       .  S
C451        C456   1.409       .  A
C451        C938   1.404       .  A
C452        C453   1.396       .  A
C452        C937   1.404   1_545  A
C452        H461   1.084       .  S
C453        C940   1.410   1_545  A
C453        S457   1.805       .  S
C454        C455   1.404       .  A
C454        C939   1.410       .  A
C455        C456   1.399       .  A
C455        H462   1.084       .  S
C456        S458   1.798       .  S
S457        H460   1.404       .  S
S458        H459   1.403       .  S
C463        C464   1.401   1_565  A
C463        C954   1.415       .  A
C464        C465   1.397       .  A
C464        H473   1.084       .  S
C465        C466   1.418   1_545  A
C465        S469   1.810       .  S
C466        C953   1.401       .  A
C467        C468   1.399       .  A
C467        C952   1.402       .  A
C467        H474   1.082       .  S
C468        C949   1.416       .  A
C468        S470   1.803       .  S
S469        H472   1.401       .  S
S470        H471   1.408       .  S
C475        C480   1.416   1_565  A
C475        C962   1.404       .  A
C476        C477   1.398       .  A
C476        C961   1.405       .  A
C476        H485   1.084       .  S
C477        C964   1.414       .  A
C477        S481   1.808       .  S
C478        C479   1.403       .  A
C478        C963   1.415       .  A
C479        C480   1.399   1_565  A
C479        H486   1.080   1_565  S
C480        S482   1.803       .  S
S481        H484   1.403       .  S
S482        H483   1.408       .  S
C487        C492   1.405   1_455  A
C487        C964   1.478       .  S
C488       C1461   1.393   1_455  A
C488        C937   1.474       .  S
C489       C1460   1.393       .  A
C489        C490   1.393       .  A
C489        H494   1.087       .  S
C490        C925   1.476       .  S
C491       C1464   1.403       .  A
C491        C952   1.481       .  S
C492       C1463   1.406       .  A
C492        H493   1.085       .  S
O495       Cu503   2.001       .  S
O496       Cu503   2.004   1_556  S
O497       Cu503   2.007   1_556  S
O498       Cu503   2.004       .  S
O499       Cu504   2.008       .  S
O499        C508   1.277       .  A
O500       Cu504   2.005   1_556  S
O500        C507   1.278       .  A
O501       Cu504   1.999   1_556  S
O501        C506   1.279       .  A
O502       Cu504   2.003       .  S
O502        C505   1.277       .  A
C505        C949   1.480       .  S
C506        C916   1.492       .  S
C507        C901   1.482       .  S
C508        C961   1.485       .  S
N509        C514   1.353       .  A
N509        C513   1.357       .  A
N509        H541   1.040   1_565  S
N510        C517   1.344       .  A
N510        C518   1.345       .  A
N511        C516   1.350       .  A
N511        C515   1.354       .  A
N511        H542   1.042   1_565  S
N512        C519   1.360   1_565  A
N512        C520   1.361   1_565  A
C513        C521   1.384       .  A
C513        C529   1.415       .  A
C514        C530   1.421   1_565  A
C514        C522   1.390       .  A
C515        C523   1.383       .  A
C515        C532   1.409       .  A
C516        C531   1.417       .  A
C516        C524   1.390       .  A
C517        C529   1.401       .  A
C517        C525   1.388       .  A
C518        C532   1.400       .  A
C518        C526   1.386       .  A
C519        C527   1.386       .  A
C519        C530   1.433       .  A
C520        C528   1.388       .  A
C520        C531   1.436   1_545  A
C521        C522   1.376       .  A
C521        H533   1.082       .  S
C522        H534   1.082       .  S
C523        C524   1.377       .  A
C523        H535   1.082       .  S
C524        H536   1.082       .  S
C525        C526   1.367       .  A
C527        C528   1.388       .  A
C527        H539   1.082       .  S
C528        H540   1.082       .  S
C529        C940   1.479       .  S
C530        C889   1.511       .  S
C531        C880   1.519   1_565  S
C532        C928   1.478       .  S
C543        C544   1.413       .  A
C543       C1520   1.403   1_455  A
C543        C913   1.476       .  S
C544       C1517   1.396   1_455  A
C544        C865   1.478       .  S
C545       C1516   1.392       .  A
C545        C546   1.393       .  A
C545        H550   1.087       .  S
C546        C547   1.416       .  A
C546        C853   1.473       .  S
C547        C548   1.406       .  A
C547        C904   1.486       .  S
C548       C1515   1.406       .  A
C548       H1035   1.085       .  S
H549       C1034   1.085       .  S
N551        C556   1.351       .  A
N551        C555   1.356       .  A
N551        H583   1.041       .  S
N552        C559   1.343       .  A
N552        C560   1.342       .  A
N553        C558   1.354       .  A
N553        C557   1.359       .  A
N553        H584   1.037       .  S
N554        C561   1.365       .  A
N554        C562   1.364       .  A
C555        C563   1.385   1_545  A
C555        C571   1.414       .  A
C556        C572   1.416       .  A
C556        C564   1.389   1_545  A
C557        C565   1.382       .  A
C557        C574   1.417       .  A
C558        C573   1.428       .  A
C558        C566   1.393       .  A
C559        C571   1.401       .  A
C559        C567   1.388       .  A
C560        C574   1.398       .  A
C560        C568   1.385       .  A
C561        C569   1.386       .  A
C561        C572   1.440       .  A
C562        C570   1.388       .  A
C562        C573   1.443       .  A
C563        C564   1.375       .  A
C563        H575   1.082       .  S
C564        H576   1.082       .  S
C565        C566   1.372       .  A
C565        H577   1.082       .  S
C566        H578   1.079   1_545  S
C567        C568   1.367       .  A
C567        H579   1.082       .  S
C568        H580   1.083       .  S
C569        C570   1.391       .  A
C569        H581   1.082       .  S
C570        H582   1.082       .  S
C571        C856   1.478       .  S
C572        C829   1.521       .  S
C573        C841   1.519       .  S
C574        C868   1.483       .  S
N585        C590   1.353   1_455  A
N585        C589   1.359       .  A
N585        H617   1.038       .  S
N586        C593   1.345       .  A
N586        C594   1.345       .  A
N587        C592   1.355       .  A
N587        C591   1.359       .  A
N587        H618   1.036       .  S
N588        C595   1.367       .  A
N588        C596   1.367       .  A
C589        C597   1.385   1_455  A
C589        C605   1.417       .  A
C590        C606   1.421   1_655  A
C590        C598   1.390       .  A
C591        C599   1.381       .  A
C591        C608   1.417       .  A
C592        C607   1.430       .  A
C592        C600   1.394       .  A
C593        C605   1.403       .  A
C593        C601   1.388       .  A
C594        C608   1.400       .  A
C594        C602   1.386       .  A
C595        C603   1.387       .  A
C595        C606   1.446       .  A
C596        C604   1.388       .  A
C596        C607   1.448       .  A
C597        C598   1.374       .  A
C597        H609   1.082       .  S
C598        H610   1.082       .  S
C599        C600   1.370       .  A
C599        H611   1.083       .  S
C600        H612   1.079   1_455  S
C601        C602   1.363       .  A
C601        H613   1.082       .  S
C602        H614   1.083       .  S
C603        C604   1.392       .  A
C603        H615   1.082       .  S
C604        H616   1.082       .  S
C605        C793   1.482       .  S
C606        C817   1.527   1_455  S
C607        C805   1.524       .  S
C608        C781   1.482       .  S
C619        C620   1.415       .  A
C619        C796   1.474       .  S
C620        C769   1.481       .  S
C621        C622   1.405   1_545  A
C621        H626   1.084       .  S
C622        C623   1.410       .  A
C622        C760   1.474       .  S
C623        C624   1.391   1_565  A
C623        C784   1.476       .  S
C624        H625   1.087       .  S
O627       Cu635   2.010       .  S
O627        C637   1.277       .  A
O628       Cu635   2.009       .  S
O628        C638   1.279       .  A
O629       Cu635   2.015       .  S
O629        C639   1.278       .  A
O630       Cu635   2.015       .  S
O630        C640   1.278       .  A
O631       Cu636   2.010       .  S
O631       C1612   1.279       .  A
O632       Cu636   2.008       .  S
O632       C1611   1.278       .  A
O633       Cu636   2.010       .  S
O633       C1610   1.277       .  A
O634       Cu636   2.011       .  S
O634       C1609   1.279       .  A
Cu635     Cu1608   2.365   1_455  S
Cu636     Cu1607   2.366       .  S
C637        C757   1.489       .  S
C637       O1606   1.278   1_455  A
C638        C745   1.488       .  S
C638       O1605   1.276   1_455  A
C639        C733   1.486       .  S
C639       O1604   1.278   1_455  A
C640        C772   1.485       .  S
C640       O1603   1.278   1_455  A
C641        C808   1.611   1_545  S
C641        C832   1.602       .  S
C641       C1816   1.618       .  S
C642        C643   1.412       .  A
C642        C748   1.479       .  S
C643        C724   1.477       .  S
C644        C645   1.394   1_545  A
C644        H649   1.086       .  S
C645        C646   1.409       .  A
C645        C709   1.471       .  S
C646        C647   1.404   1_565  A
C646        C736   1.483       .  S
C647        H648   1.085       .  S
N650        C655   1.351       .  A
N650        C654   1.361       .  A
N650        H682   1.041       .  S
N651        C658   1.342       .  A
N651        C659   1.341       .  A
N652        C657   1.351   1_455  A
N652        C656   1.355       .  A
N652        H683   1.044       .  S
N653        C660   1.356       .  A
N653        C661   1.361       .  A
C654        C662   1.384       .  A
C654        C670   1.417       .  A
C655        C671   1.418   1_455  A
C655        C663   1.385   1_455  A
C656        C664   1.384   1_455  A
C656        C673   1.409       .  A
C657        C672   1.419       .  A
C657        C665   1.388       .  A
C658        C670   1.398       .  A
C658        C666   1.387       .  A
C659        C673   1.397       .  A
C659        C667   1.387       .  A
C660        C668   1.385       .  A
C660        C671   1.426       .  A
C661        C669   1.385       .  A
C661        C672   1.432       .  A
C662        C663   1.373   1_455  A
C662        H674   1.082   1_455  S
C663        H675   1.077       .  S
C664        C665   1.376       .  A
C664        H676   1.082       .  S
C665        H677   1.083       .  S
C666        C667   1.371       .  A
C666        H678   1.082       .  S
C667        H679   1.082       .  S
C668        C669   1.380       .  A
C668        H680   1.081       .  S
C669        H681   1.080       .  S
C670        C721   1.484       .  S
C671        C697   1.505       .  S
C672        C688   1.552       .  S
C673        C712   1.473       .  S
C684       C1657   1.583   1_545  S
C684       C1186   1.583       .  S
C684        C877   1.599       .  S
C684       C1864   1.618       .  S
C685       C1658   1.423       .  A
C685        C690   1.435       .  A
C685       C1656   1.591   1_565  S
C686       C1657   1.424       .  A
C686        C687   1.407       .  A
C686        H695   1.084       .  S
C687       C1660   1.418       .  A
C687        S691   1.805       .  S
C688       C1659   1.421   1_655  A
C688        C689   1.414       .  A
C689        C690   1.402       .  A
C689        H696   1.075       .  S
C690        S692   1.804   1_565  S
S691       H1666   1.407       .  S
H694       S1663   1.407       .  S
C697       C1670   1.398       .  A
C697        C702   1.409   1_655  A
C698       C1669   1.396       .  A
C698        C699   1.415       .  A
C698        H707   1.082       .  S
C699       C1672   1.449       .  A
C699        S703   1.810       .  S
C700       C1671   1.447       .  A
C700        C701   1.423   1_655  A
C700       C1170   1.586       .  S
C701        C702   1.399       .  A
C701        H708   1.082       .  S
C702        S704   1.805       .  S
S703        H706   1.406       .  S
S704        H705   1.406       .  S
C709       C1682   1.401   1_455  A
C709        C714   1.413       .  A
C710       C1681   1.402       .  A
C710        C711   1.400       .  A
C710        H719   1.084       .  S
C711       C1684   1.415       .  A
C711        S715   1.805       .  S
C712       C1683   1.414   1_455  A
C712        C713   1.398       .  A
C713        C714   1.390       .  A
C713        H720   1.084       .  S
C714        S716   1.806       .  S
S715        H718   1.404       .  S
C721       C1694   1.405   1_455  A
C721        C726   1.408       .  A
C722       C1693   1.404       .  A
C722        C723   1.398       .  A
C722        H731   1.084       .  S
C723       C1696   1.412       .  A
C723        S727   1.804       .  S
C724       C1695   1.412   1_455  A
C724        C725   1.407       .  A
C725        C726   1.397       .  A
C725        H732   1.084       .  S
C726        S728   1.804       .  S
S728        H729   1.405       .  S
C733       C1706   1.405   1_455  A
C733        C738   1.418       .  A
C734       C1705   1.404       .  A
C734        C735   1.397       .  A
C734        H743   1.084       .  S
C735       C1708   1.414       .  A
C735        S739   1.806       .  S
C736       C1707   1.412   1_455  A
C736        C737   1.403       .  A
C737        C738   1.406       .  A
C737        H744   1.083       .  S
C738        S740   1.808       .  S
S739        H742   1.407       .  S
S740        H741   1.407       .  S
C745        C746   1.408       .  A
C745       C1722   1.418   1_455  A
C746        C747   1.400       .  A
C746        H755   1.084       .  S
C747        C748   1.411       .  A
C747        S751   1.804       .  S
C748       C1721   1.402   1_455  A
C749       C1720   1.402       .  A
C749        C750   1.397       .  A
C749        H756   1.084       .  S
C750       C1717   1.417       .  A
C750        S752   1.802       .  S
S751        H754   1.405       .  S
S752        H753   1.408       .  S
C757       C1730   1.407   1_455  A
C757        C762   1.421       .  A
C758       C1729   1.407       .  A
C758        C759   1.398       .  A
C758        H767   1.083       .  S
C759       C1732   1.411       .  A
C759        S763   1.804       .  S
C760       C1731   1.410   1_455  A
C760        C761   1.399       .  A
C761        C762   1.400       .  A
C761        H768   1.084       .  S
C762        S764   1.800       .  S
S763        H766   1.405       .  S
S764        H765   1.406       .  S
C769        C770   1.403       .  A
C769       C1746   1.414   1_455  A
C770        C771   1.405       .  A
C770        H779   1.082       .  S
C771        C772   1.417       .  A
C771        S775   1.807       .  S
C772       C1745   1.404   1_455  A
C773       C1744   1.405       .  A
C773        C774   1.399       .  A
C773        H780   1.084       .  S
C774       C1741   1.416       .  A
C774        S776   1.806       .  S
S775        H778   1.407       .  S
S776        H777   1.401       .  S
C781        C782   1.399       .  A
C781       C1758   1.415   1_455  A
C782        C783   1.400       .  A
C782        H791   1.083       .  S
C783        C784   1.414       .  A
C783        S787   1.808       .  S
C784       C1757   1.399       .  A
C785       C1756   1.400       .  A
C785        C786   1.394       .  A
C785        H792   1.083       .  S
C786       C1753   1.411       .  A
C786        S788   1.803       .  S
S787        H790   1.407       .  S
S788        H789   1.405       .  S
C793       C1766   1.403   1_455  A
C793        C798   1.411       .  A
C794       C1765   1.402       .  A
C794       C1767   1.398       .  A
C794        H803   1.084       .  S
C795       C1766   1.398       .  A
C795        C796   1.411   1_655  A
C795       S1771   1.800       .  S
C796        C797   1.404       .  A
C797        C798   1.395       .  A
C797        H804   1.084       .  S
C798        S800   1.805       .  S
S799       C1767   1.801       .  S
S799        H802   1.405       .  S
S800        H801   1.405       .  S
C805       C1778   1.407   1_455  A
C805        C810   1.413       .  A
C806       C1777   1.408       .  A
C806        C807   1.420       .  A
C806        H815   1.082       .  S
C807        C808   1.435       .  A
C807        S811   1.801       .  S
C808       C1781   1.429       .  A
C809       C1780   1.427   1_455  A
C809        C810   1.415       .  A
C809        H816   1.076       .  S
C810        S812   1.805       .  S
S811        H814   1.406       .  S
S812        H813   1.404       .  S
C817       C1790   1.398       .  A
C817        C822   1.418   1_655  A
C818       C1789   1.397       .  A
C818        C819   1.419       .  A
C818        H827   1.085       .  S
C819        C820   1.460       .  A
C819        S823   1.817       .  S
C820       C1793   1.424       .  A
C821       C1792   1.422   1_455  A
C821        C822   1.414       .  A
C821        H828   1.083       .  S
C822        S824   1.803       .  S
S823        H826   1.383       .  S
S824        H825   1.407       .  S
C829        C830   1.399   1_545  A
C830        C831   1.417       .  A
C830        H839   1.084       .  S
C831        C832   1.450   1_565  A
C831        S835   1.806       .  S
C833        C834   1.413       .  A
C833        H840   1.076       .  S
C834        S836   1.804       .  S
S835        H838   1.396       .  S
S836        H837   1.406       .  S
C841        C846   1.413   1_545  A
C842        C843   1.417       .  A
C842        H851   1.084       .  S
C843        S847   1.811       .  S
C844        C845   1.420   1_545  A
C844       C1613   1.618   1_455  S
C845        C846   1.412       .  A
C845        H852   1.073       .  S
C846        S848   1.804       .  S
S847        H850   1.393       .  S
S848        H849   1.406       .  S
C853        C854   1.403   1_545  A
C854        C855   1.396       .  A
C854        H863   1.082       .  S
C855        C856   1.412   1_565  A
C855        S859   1.805       .  S
C857        C858   1.396       .  A
C857        H864   1.084       .  S
C858        S860   1.798       .  S
S859        H862   1.404       .  S
S860        H861   1.402       .  S
C865        C866   1.401   1_545  A
C866        C867   1.398   1_565  A
C866        H875   1.082       .  S
C867        C868   1.416       .  A
C867        S871   1.806   1_545  S
C869        C870   1.394       .  A
C869        H876   1.084       .  S
C870        S872   1.796       .  S
S871        H874   1.404       .  S
S872        H873   1.404       .  S
C877        C882   1.453   1_545  A
C878        C879   1.408       .  A
C878        H887   1.072       .  S
C879        S883   1.807       .  S
C880        C881   1.396   1_545  A
C881        C882   1.414       .  A
C881        H888   1.083       .  S
C882        S884   1.806       .  S
S883        H886   1.407       .  S
S884        H885   1.408       .  S
C889        C894   1.404   1_545  A
C890        C891   1.419       .  A
C890        H899   1.082       .  S
C891        S895   1.813       .  S
C892        C893   1.433   1_545  A
C892       C1656   1.618   1_455  S
C893        C894   1.404       .  A
C893        H900   1.076       .  S
C894        S896   1.805       .  S
S895        H898   1.406       .  S
S896        H897   1.405       .  S
C901        C902   1.403       .  A
C902        C903   1.396       .  A
C902        H911   1.084       .  S
C903        S907   1.807       .  S
C904        C905   1.403   1_545  A
C905        C906   1.397       .  A
C905        H912   1.079       .  S
C906        S908   1.802       .  S
S907        H910   1.404       .  S
S908        H909   1.408       .  S
C913        C914   1.400   1_545  A
C914        C915   1.398       .  A
C914        H923   1.084       .  S
C915        S919   1.801       .  S
C916        C917   1.407       .  A
C917        C918   1.394       .  A
C917        H924   1.083       .  S
C918        S920   1.809       .  S
S919        H922   1.406       .  S
S920        H921   1.400       .  S
C925        C926   1.403       .  A
C926        C927   1.401       .  A
C926        H935   1.083       .  S
C927        C928   1.413       .  A
C927        S931   1.803       .  S
C929        C930   1.394       .  A
C929        H936   1.084       .  S
C930        S932   1.810       .  S
S931        H934   1.405       .  S
S932        H933   1.398       .  S
C937        C942   1.410       .  A
C938        C939   1.396       .  A
C938        H947   1.084       .  S
C939        S943   1.804       .  S
C940        C941   1.402       .  A
C941        C942   1.398       .  A
C941        H948   1.084       .  S
C942        S944   1.800       .  S
S943        H946   1.404       .  S
S944        H945   1.403       .  S
C949        C950   1.403       .  A
C950        C951   1.397       .  A
C950        H959   1.084       .  S
C951        C952   1.415       .  A
C951        S955   1.805       .  S
C953        C954   1.398       .  A
C953        H960   1.082       .  S
C954        S956   1.803       .  S
S955        H958   1.400       .  S
S956        H957   1.408       .  S
C961        C966   1.417       .  A
C962        C963   1.398       .  A
C962        H971   1.084       .  S
C963        S967   1.808       .  S
C964        C965   1.401       .  A
C965        C966   1.399       .  A
C965        H972   1.082       .  S
C966        S968   1.802       .  S
S967        H970   1.402       .  S
S968        H969   1.408       .  S
C973       C1460   1.410       .  A
C973        C978   1.401       .  A
C973       C1450   1.480       .  S
C974       C1459   1.413       .  A
C974       C1423   1.470       .  S
C975        C976   1.395       .  A
C975        H980   1.087       .  S
C976       C1463   1.416       .  A
C976       C1411   1.472       .  S
C977       C1462   1.412       .  A
C977       C1438   1.486       .  S
C978        H979   1.085       .  S
O981       Cu989   2.009       .  S
O981       C1477   1.278       .  A
O982       Cu989   2.011   1_556  S
O982       C1478   1.277       .  A
O983       Cu989   2.009   1_556  S
O983       C1479   1.277       .  A
O984       Cu989   2.003       .  S
O984       C1480   1.277       .  A
O985       Cu990   2.007       .  S
O985        C994   1.277   1_545  A
O986       Cu990   2.007   1_556  S
O986        C993   1.279   1_545  A
O987       Cu990   1.998   1_556  S
O987        C992   1.278   1_545  A
O988       Cu990   2.004       .  S
O988        C991   1.277   1_545  A
Cu989     Cu1476   2.367       .  S
Cu990     Cu1475   2.366   1_545  S
C991       C1435   1.484       .  S
C991       O1467   1.279       .  A
C992       C1402   1.492       .  S
C992       O1468   1.279       .  A
C993       C1387   1.490       .  S
C993       O1469   1.277       .  A
C994       C1447   1.484       .  S
C994       O1470   1.278       .  A
N995       C1000   1.352       .  A
N995        C999   1.356       .  A
N995       H1027   1.040       .  S
N996       C1003   1.343       .  A
N996       C1004   1.345       .  A
N997       C1002   1.351       .  A
N997       C1001   1.355       .  A
N997       H1028   1.042       .  S
N998       C1005   1.362       .  A
N998       C1006   1.363       .  A
C999       C1007   1.384       .  A
C999       C1015   1.413       .  A
C1000      C1016   1.419       .  A
C1000      C1008   1.391       .  A
C1001      C1009   1.384       .  A
C1001      C1018   1.412       .  A
C1002      C1017   1.420       .  A
C1002      C1010   1.390       .  A
C1003      C1015   1.399       .  A
C1003      C1011   1.387       .  A
C1004      C1018   1.399       .  A
C1004      C1012   1.386       .  A
C1005      C1013   1.385       .  A
C1005      C1016   1.436       .  A
C1006      C1014   1.389       .  A
C1006      C1017   1.441       .  A
C1007      C1008   1.376       .  A
C1007      H1019   1.082       .  S
C1008      H1020   1.082       .  S
C1009      C1010   1.379       .  A
C1009      H1021   1.082       .  S
C1010      H1022   1.082       .  S
C1011      C1012   1.367       .  A
C1011      H1509   1.082       .  S
C1012      H1510   1.082       .  S
C1013      C1014   1.388       .  A
C1013      H1025   1.082       .  S
C1014      H1026   1.081       .  S
C1015      C1426   1.476       .  S
C1016      C1375   1.514       .  S
C1017      C1366   1.527       .  S
C1018      C1414   1.479       .  S
H1023      C1497   1.082       .  S
H1024      C1498   1.082       .  S
C1029      C1030   1.412       .  A
C1029      C1399   1.476       .  S
C1030      C1351   1.476       .  S
C1031      C1032   1.395       .  A
C1031      H1036   1.086       .  S
C1032      C1033   1.414       .  A
C1032      C1339   1.473       .  S
C1033      C1034   1.404       .  A
C1033      C1390   1.484       .  S
N1037      C1042   1.351       .  A
N1037      C1041   1.358       .  A
N1037      H1069   1.040       .  S
N1038      C1045   1.345       .  A
N1038      C1046   1.343       .  A
N1039      C1044   1.355       .  A
N1039      C1043   1.358       .  A
N1039      H1070   1.038       .  S
N1040      C1047   1.365       .  A
N1040      C1048   1.364       .  A
C1041      C1049   1.385       .  A
C1041      C1057   1.416       .  A
C1042      C1058   1.418       .  A
C1042      C1050   1.389       .  A
C1043      C1051   1.383       .  A
C1043      C1060   1.416       .  A
C1044      C1059   1.426       .  A
C1044      C1052   1.392       .  A
C1045      C1057   1.401       .  A
C1045      C1053   1.387       .  A
C1046      C1060   1.400       .  A
C1046      C1054   1.386       .  A
C1047      C1055   1.387       .  A
C1047      C1058   1.441       .  A
C1048      C1056   1.387       .  A
C1048      C1059   1.442       .  A
C1049      C1050   1.375       .  A
C1049      H1061   1.082       .  S
C1050      H1062   1.082       .  S
C1051      C1052   1.372       .  A
C1051      H1063   1.082       .  S
C1052      H1064   1.080       .  S
C1053      C1054   1.367       .  A
C1053      H1065   1.082       .  S
C1054      H1066   1.083       .  S
C1055      C1056   1.391       .  A
C1055      H1067   1.082       .  S
C1056      H1068   1.082       .  S
C1057      C1342   1.483       .  S
C1058      C1315   1.520       .  S
C1059      C1327   1.519       .  S
C1060      C1354   1.482       .  S
N1071      C1076   1.353       .  A
N1071      C1075   1.357       .  A
N1071      H1103   1.039       .  S
N1072      C1079   1.345       .  A
N1072      C1080   1.345       .  A
N1073      C1078   1.354       .  A
N1073      C1077   1.360       .  A
N1073      H1104   1.036       .  S
N1074      C1081   1.367       .  A
N1074      C1082   1.366       .  A
C1075      C1083   1.386       .  A
C1075      C1091   1.417       .  A
C1076      C1092   1.420       .  A
C1076      C1084   1.389       .  A
C1077      C1085   1.382       .  A
C1077      C1094   1.417       .  A
C1078      C1093   1.427       .  A
C1078      C1086   1.393       .  A
C1079      C1091   1.403       .  A
C1079      C1087   1.388       .  A
C1080      C1094   1.400       .  A
C1080      C1088   1.385       .  A
C1081      C1089   1.387       .  A
C1081      C1092   1.445       .  A
C1082      C1090   1.387       .  A
C1082      C1093   1.446       .  A
C1083      C1084   1.375       .  A
C1083      H1095   1.082       .  S
C1084      H1096   1.082       .  S
C1085      C1086   1.372       .  A
C1085      H1097   1.082       .  S
C1086      H1098   1.081       .  S
C1087      C1088   1.365       .  A
C1087      H1099   1.082       .  S
C1088      H1100   1.083       .  S
C1089      C1090   1.391       .  A
C1089      H1101   1.082       .  S
C1090      H1102   1.082       .  S
C1091      C1279   1.481       .  S
C1092      C1303   1.528       .  S
C1093      C1291   1.521       .  S
C1094      C1267   1.485       .  S
C1105      C1106   1.413       .  A
C1105      C1596   1.392       .  A
C1105      C1282   1.473       .  S
C1106      C1593   1.407       .  A
C1106      C1255   1.481       .  S
C1107      C1592   1.406       .  A
C1107      C1108   1.407       .  A
C1107      H1112   1.084       .  S
C1108      C1109   1.411       .  A
C1108      C1246   1.478       .  S
C1109      C1110   1.393       .  A
C1109      C1270   1.478       .  S
C1110      C1591   1.394       .  A
C1110      H1111   1.086       .  S
O1113     Cu1121   2.016       .  S
O1113      C1123   1.278       .  A
O1114     Cu1121   2.016       .  S
O1114      C1124   1.279       .  A
O1115     Cu1121   2.017       .  S
O1115      C1125   1.279       .  A
O1116     Cu1121   2.017       .  S
O1116      C1126   1.278       .  A
O1117     Cu1122   2.004       .  S
O1118     Cu1122   2.004       .  S
O1119     Cu1122   2.007       .  S
O1120     Cu1122   2.009       .  S
C1123      C1243   1.491       .  S
C1124      C1231   1.488       .  S
C1125      C1219   1.485       .  S
C1126      C1258   1.487       .  S
C1127      C1294   1.612       .  S
C1127      C1792   1.606       .  S
C1127      C1318   1.603       .  S
C1128      C1129   1.412       .  A
C1128      C1619   1.406       .  A
C1128      C1234   1.480       .  S
C1129      C1616   1.393       .  A
C1129      C1210   1.474       .  S
C1130      C1615   1.394       .  A
C1130      C1131   1.393       .  A
C1130      H1135   1.086       .  S
C1131      C1132   1.409       .  A
C1131      C1195   1.474       .  S
C1132      C1133   1.406       .  A
C1132      C1222   1.482       .  S
C1133      C1614   1.405       .  A
C1133      H1134   1.085       .  S
N1136      C1141   1.350       .  A
N1136      C1140   1.359       .  A
N1136      H1168   1.041       .  S
N1137      C1144   1.342       .  A
N1137      C1145   1.341       .  A
N1138      C1143   1.352       .  A
N1138      C1142   1.357       .  A
N1138      H1169   1.044       .  S
N1139      C1146   1.357       .  A
N1139      C1147   1.360       .  A
C1140      C1148   1.384       .  A
C1140      C1156   1.414       .  A
C1141      C1157   1.415       .  A
C1141      C1149   1.386       .  A
C1142      C1150   1.383       .  A
C1142      C1159   1.412       .  A
C1143      C1158   1.423       .  A
C1143      C1151   1.389       .  A
C1144      C1156   1.398       .  A
C1144      C1152   1.386       .  A
C1145      C1159   1.397       .  A
C1145      C1153   1.387       .  A
C1146      C1154   1.384       .  A
C1146      C1157   1.425       .  A
C1147      C1155   1.385       .  A
C1147      C1158   1.432       .  A
C1148      C1149   1.372       .  A
C1148      H1160   1.082       .  S
C1149      H1161   1.078       .  S
C1150      C1151   1.376       .  A
C1150      H1162   1.082       .  S
C1151      H1163   1.083       .  S
C1152      C1153   1.370       .  A
C1152      H1164   1.082       .  S
C1153      H1165   1.082       .  S
C1154      C1155   1.378       .  A
C1154      H1166   1.081       .  S
C1155      H1167   1.080       .  S
C1156      C1207   1.479       .  S
C1157      C1183   1.502       .  S
C1158      C1174   1.552       .  S
C1159      C1198   1.479       .  S
C1170      C1363   1.600       .  S
C1171      C1176   1.434       .  A
C1172      C1173   1.410       .  A
C1172      H1181   1.084       .  S
C1173      S1177   1.806   1_655  S
C1174      C1175   1.413       .  A
C1175      C1176   1.402       .  A
C1175      H1182   1.075       .  S
C1176      S1178   1.804       .  S
S1178      H1665   1.398       .  S
H1179      S1664   1.400       .  S
C1183      C1188   1.408       .  A
C1184      C1185   1.415       .  A
C1184      H1193   1.082       .  S
C1185      S1189   1.809       .  S
C1186      C1187   1.423       .  A
C1187      C1188   1.397       .  A
C1187      H1194   1.082       .  S
C1188      S1190   1.805       .  S
S1189      H1192   1.406       .  S
S1190      H1191   1.406       .  S
C1195      C1200   1.413       .  A
C1196      C1197   1.400       .  A
C1196      H1205   1.084       .  S
C1197      S1201   1.805       .  S
C1198      C1199   1.399       .  A
C1199      C1200   1.392       .  A
C1199      H1206   1.084       .  S
C1200      S1202   1.806       .  S
S1201      H1204   1.404       .  S
S1202      H1689   1.406       .  S
H1203      S1688   1.406       .  S
C1207      C1212   1.409       .  A
C1208      C1209   1.399       .  A
C1208      H1217   1.084       .  S
C1209      S1213   1.805       .  S
C1210      C1211   1.406       .  A
C1211      C1212   1.396       .  A
C1211      H1218   1.084       .  S
C1212      S1214   1.808       .  S
S1213      H1702   1.404       .  S
S1214      H1215   1.402       .  S
H1216      S1699   1.404       .  S
C1219      C1224   1.417       .  A
C1220      C1221   1.397       .  A
C1220      H1229   1.084       .  S
C1221      S1225   1.805       .  S
C1222      C1223   1.403       .  A
C1223      C1224   1.405       .  A
C1223      H1230   1.082       .  S
C1224      S1226   1.807       .  S
S1225      H1228   1.407       .  S
S1226      H1227   1.407       .  S
C1231      C1232   1.409       .  A
C1232      C1233   1.403       .  A
C1232      H1241   1.084       .  S
C1233      C1234   1.412       .  A
C1233      S1237   1.804       .  S
C1235      C1236   1.397       .  A
C1235      H1242   1.085       .  S
C1236      S1238   1.802       .  S
S1237      H1240   1.405       .  S
S1238      H1239   1.408       .  S
C1243      C1248   1.421       .  A
C1244      C1245   1.398       .  A
C1244      H1253   1.083       .  S
C1245      S1249   1.805       .  S
C1246      C1247   1.400       .  A
C1247      C1248   1.402       .  A
C1247      H1254   1.084       .  S
C1248      S1250   1.800       .  S
S1249      H1252   1.405       .  S
S1250      H1251   1.407       .  S
C1255      C1256   1.403       .  A
C1256      C1257   1.406       .  A
C1256      H1265   1.083       .  S
C1257      C1258   1.418       .  A
C1257      S1261   1.808       .  S
C1259      C1260   1.397       .  A
C1259      H1266   1.084       .  S
C1260      S1262   1.805       .  S
S1261      H1264   1.407       .  S
S1262      H1263   1.401       .  S
C1267      C1268   1.400       .  A
C1268      C1269   1.401       .  A
C1268      H1277   1.083       .  S
C1269      C1270   1.413       .  A
C1269      S1273   1.807       .  S
C1271      C1272   1.394       .  A
C1271      H1278   1.084       .  S
C1272      S1274   1.803       .  S
S1273      H1276   1.407       .  S
S1274      H1275   1.405       .  S
C1279      C1284   1.410       .  A
C1280      H1289   1.084       .  S
C1281      C1282   1.412       .  A
C1282      C1283   1.404       .  A
C1283      C1284   1.396       .  A
C1283      H1290   1.084       .  S
C1284      S1286   1.804       .  S
S1285      H1288   1.406       .  S
S1286      H1287   1.405       .  S
C1291      C1296   1.413       .  A
C1292      C1293   1.420       .  A
C1292      H1301   1.082       .  S
C1293      C1294   1.434       .  A
C1293      S1297   1.800       .  S
C1295      C1296   1.413       .  A
C1295      H1302   1.080       .  S
C1296      S1298   1.803       .  S
S1297      H1300   1.406       .  S
S1298      H1299   1.403       .  S
C1303      C1308   1.420       .  A
C1304      C1305   1.420       .  A
C1304      H1313   1.084       .  S
C1305      C1306   1.455       .  A
C1305      S1309   1.809       .  S
C1306      C1613   1.603       .  S
C1307      C1308   1.414       .  A
C1307      H1314   1.083       .  S
C1308      S1310   1.804       .  S
S1309      H1312   1.390       .  S
S1310      H1311   1.406       .  S
C1315      C1316   1.398       .  A
C1315      C1806   1.419       .  A
C1316      C1317   1.417       .  A
C1316      H1325   1.084       .  S
C1317      C1318   1.450       .  A
C1317      S1321   1.805       .  S
C1318      C1805   1.416       .  A
C1319      C1804   1.416   1_545  A
C1319      C1320   1.414       .  A
C1319      H1326   1.072       .  S
C1320      C1801   1.418   1_545  A
C1320      S1322   1.804       .  S
S1321      H1324   1.396       .  S
S1322      H1323   1.406       .  S
C1327      C1814   1.403       .  A
C1327      C1332   1.414       .  A
C1328      C1813   1.400   1_545  A
C1328      C1329   1.419       .  A
C1328      H1337   1.084       .  S
C1329      C1816   1.451       .  A
C1329      S1333   1.808       .  S
C1330      C1815   1.444       .  A
C1330      C1331   1.420       .  A
C1331      C1332   1.411       .  A
C1331      H1338   1.077       .  S
C1332      S1334   1.804       .  S
S1333      H1336   1.395       .  S
S1334      H1335   1.405       .  S
C1339      C1340   1.403       .  A
C1339      C1830   1.415       .  A
C1340      C1341   1.398       .  A
C1340      H1349   1.083       .  S
C1341      C1342   1.412       .  A
C1341      S1345   1.804       .  S
C1342      C1829   1.400       .  A
C1343      C1828   1.401   1_545  A
C1343      C1344   1.393       .  A
C1343      H1350   1.084       .  S
C1344      C1825   1.408   1_545  A
C1344      S1346   1.797       .  S
S1345      H1348   1.405       .  S
S1346      H1347   1.402       .  S
C1351      C1352   1.401       .  A
C1351      C1842   1.417       .  A
C1352      C1353   1.398       .  A
C1352      H1361   1.083       .  S
C1353      C1354   1.415       .  A
C1353      S1357   1.805       .  S
C1354      C1841   1.397       .  A
C1355      C1840   1.403   1_545  A
C1355      C1356   1.397       .  A
C1355      H1362   1.084       .  S
C1356      C1837   1.410       .  A
C1356      S1358   1.801       .  S
S1357      H1360   1.405       .  S
S1358      H1359   1.405       .  S
C1363      C1850   1.415       .  A
C1363      C1368   1.449       .  A
C1364      C1849   1.415       .  A
C1364      C1365   1.407       .  A
C1364      H1373   1.071       .  S
C1365      C1852   1.421       .  A
C1365      S1369   1.807       .  S
C1366      C1851   1.421       .  A
C1366      C1367   1.398       .  A
C1367      C1368   1.416       .  A
C1367      H1374   1.082       .  S
C1368      S1370   1.805       .  S
S1369      H1372   1.407       .  S
S1370      H1371   1.407       .  S
C1375      C1862   1.408       .  A
C1375      C1380   1.403       .  A
C1376      C1861   1.406       .  A
C1376      C1377   1.418       .  A
C1376      H1385   1.082       .  S
C1377      C1864   1.440       .  A
C1377      S1381   1.813       .  S
C1378      C1863   1.438       .  A
C1378      C1379   1.434       .  A
C1379      C1380   1.404       .  A
C1379      H1386   1.076       .  S
C1380      S1382   1.805       .  S
S1381      H1384   1.406       .  S
S1382      H1383   1.405       .  S
C1387      C1388   1.407   1_565  A
C1387      C1878   1.420       .  A
C1388      C1389   1.397       .  A
C1388      H1397   1.084       .  S
C1389      C1876   1.414       .  A
C1389      S1393   1.810       .  S
C1390      C1875   1.415       .  A
C1390      C1391   1.401       .  A
C1391      C1392   1.399       .  A
C1391      H1398   1.082       .  S
C1392      C1873   1.417       .  A
C1392      S1394   1.801       .  S
S1393      H1396   1.404       .  S
S1394      H1395   1.407       .  S
C1399      C1400   1.400       .  A
C1399      C1890   1.409       .  A
C1400      C1401   1.399       .  A
C1400      H1409   1.084       .  S
C1401      C1888   1.421       .  A
C1401      S1405   1.801       .  S
C1402      C1887   1.420       .  A
C1402      C1403   1.407   1_565  A
C1403      C1404   1.395       .  A
C1403      H1410   1.083       .  S
C1404      C1885   1.412       .  A
C1404      S1406   1.805       .  S
S1405      H1408   1.406       .  S
S1406      H1407   1.402       .  S
C1411      C1412   1.403       .  A
C1411      C1902   1.417       .  A
C1412      C1413   1.399       .  A
C1412      H1421   1.083       .  S
C1413      C1414   1.412       .  A
C1413      S1417   1.804       .  S
C1414      C1901   1.399       .  A
C1415      C1900   1.399   1_545  A
C1415      C1416   1.392       .  A
C1415      H1422   1.084       .  S
C1416      C1897   1.413   1_545  A
C1416      S1418   1.806       .  S
S1417      H1420   1.403       .  S
S1418      H1419   1.401       .  S
C1423      C1910   1.404       .  A
C1423      C1428   1.409       .  A
C1424      C1909   1.405   1_545  A
C1424      C1425   1.395       .  A
C1424      H1433   1.084       .  S
C1425      C1912   1.409   1_545  A
C1425      S1429   1.804       .  S
C1426      C1911   1.409       .  A
C1426      C1427   1.402       .  A
C1427      C1428   1.397       .  A
C1427      H1434   1.084       .  S
C1428      S1430   1.800       .  S
S1429      H1432   1.404       .  S
S1430      H1431   1.403       .  S
C1435      C1436   1.403   1_565  A
C1435      C1926   1.416       .  A
C1436      C1437   1.398       .  A
C1436      H1445   1.084       .  S
C1437      C1438   1.416   1_545  A
C1437      S1441   1.807       .  S
C1438      C1925   1.404       .  A
C1439      C1924   1.403       .  A
C1439      C1440   1.402       .  A
C1439      H1446   1.082       .  S
C1440      C1921   1.415       .  A
C1440      S1442   1.803       .  S
S1441      H1444   1.401       .  S
S1442      H1443   1.408       .  S
C1447      C1934   1.405       .  A
C1447      C1452   1.417   1_565  A
C1448      C1933   1.404       .  A
C1448      C1449   1.397       .  A
C1448      H1457   1.084       .  S
C1449      C1936   1.416       .  A
C1449      S1453   1.808       .  S
C1450      C1935   1.414       .  A
C1450      C1451   1.402   1_565  A
C1451      C1452   1.399       .  A
C1451      H1458   1.082       .  S
C1452      S1454   1.802       .  S
S1453      H1456   1.404       .  S
S1454      H1455   1.408       .  S
C1459      C1464   1.404       .  A
C1459      C1936   1.482       .  S
C1460      C1909   1.468       .  S
C1461      C1462   1.394       .  A
C1461      H1466   1.087       .  S
C1462      C1897   1.469       .  S
C1463      C1924   1.487       .  S
C1464      H1465   1.085       .  S
O1467     Cu1475   2.021       .  S
O1468     Cu1475   2.026   1_556  S
O1469     Cu1475   2.011   1_556  S
O1470     Cu1475   2.003       .  S
O1471     Cu1476   2.013       .  S
O1471      C1480   1.278       .  A
O1472     Cu1476   2.011   1_556  S
O1472      C1479   1.279       .  A
O1473     Cu1476   2.009   1_556  S
O1473      C1478   1.279       .  A
O1474     Cu1476   2.009       .  S
O1474      C1477   1.278       .  A
C1477      C1921   1.481       .  S
C1478      C1888   1.495       .  S
C1479      C1873   1.486       .  S
C1480      C1933   1.483       .  S
N1481      C1486   1.352   1_545  A
N1481      C1485   1.356   1_545  A
N1481      H1513   1.041       .  S
N1482      C1489   1.343   1_565  A
N1482      C1490   1.343       .  A
N1483      C1488   1.351       .  A
N1483      C1487   1.354       .  A
N1483      H1514   1.042   1_565  S
N1484      C1491   1.360       .  A
N1484      C1492   1.363       .  A
C1485      C1493   1.384       .  A
C1485      C1501   1.413       .  A
C1486      C1502   1.418   1_565  A
C1486      C1494   1.390       .  A
C1487      C1495   1.384       .  A
C1487      C1504   1.412       .  A
C1488      C1503   1.418       .  A
C1488      C1496   1.389       .  A
C1489      C1501   1.398   1_545  A
C1489      C1497   1.387       .  A
C1490      C1504   1.400       .  A
C1490      C1498   1.387   1_565  A
C1491      C1499   1.385       .  A
C1491      C1502   1.434       .  A
C1492      C1500   1.389       .  A
C1492      C1503   1.439   1_545  A
C1493      C1494   1.376       .  A
C1493      H1505   1.082       .  S
C1494      H1506   1.082       .  S
C1495      C1496   1.379       .  A
C1495      H1507   1.082       .  S
C1496      H1508   1.082       .  S
C1497      C1498   1.367       .  A
C1499      C1500   1.388       .  A
C1499      H1511   1.082       .  S
C1500      H1512   1.081       .  S
C1501      C1912   1.476       .  S
C1502      C1861   1.511       .  S
C1503      C1852   1.526   1_565  S
C1504      C1900   1.476       .  S
C1515      C1516   1.411       .  A
C1515      C1885   1.480       .  S
C1516      C1837   1.472       .  S
C1517      C1518   1.393       .  A
C1517      H1522   1.086       .  S
C1518      C1519   1.411       .  A
C1518      C1825   1.472   1_545  S
C1519      C1520   1.403       .  A
C1519      C1876   1.478       .  S
N1523      C1528   1.355       .  A
N1523      C1527   1.358       .  A
N1523      H1555   1.035       .  S
N1524      C1531   1.346       .  A
N1524      C1532   1.346       .  A
N1525      C1530   1.357       .  A
N1525      C1529   1.360       .  A
N1525      H1556   1.039       .  S
N1526      C1533   1.364       .  A
N1526      C1534   1.365       .  A
C1527      C1535   1.382       .  A
C1527      C1543   1.415       .  A
C1528      C1544   1.428       .  A
C1528      C1536   1.393       .  A
C1529      C1537   1.385   1_565  A
C1529      C1546   1.419       .  A
C1530      C1545   1.425       .  A
C1530      C1538   1.390   1_565  A
C1531      C1543   1.404       .  A
C1531      C1539   1.387       .  A
C1532      C1546   1.405       .  A
C1532      C1540   1.388       .  A
C1533      C1541   1.388       .  A
C1533      C1544   1.445       .  A
C1534      C1542   1.386       .  A
C1534      C1545   1.442       .  A
C1535      C1536   1.370       .  A
C1535      H1547   1.083       .  S
C1536      H1548   1.082       .  S
C1537      C1538   1.371       .  A
C1537      H1549   1.082       .  S
C1538      H1550   1.082       .  S
C1539      C1540   1.364       .  A
C1539      H1551   1.082       .  S
C1540      H1552   1.083       .  S
C1541      C1542   1.390       .  A
C1541      H1553   1.082       .  S
C1542      H1554   1.082       .  S
C1543      C1828   1.481       .  S
C1544      C1801   1.522       .  S
C1545      C1813   1.526       .  S
C1546      C1840   1.483       .  S
N1557      C1562   1.355       .  A
N1557      C1561   1.359       .  A
N1557      H1589   1.035       .  S
N1558      C1565   1.346       .  A
N1558      C1566   1.346       .  A
N1559      C1564   1.356       .  A
N1559      C1563   1.359       .  A
N1559      H1590   1.038       .  S
N1560      C1567   1.364       .  A
N1560      C1568   1.365       .  A
C1561      C1569   1.382       .  A
C1561      C1577   1.417       .  A
C1562      C1578   1.429       .  A
C1562      C1570   1.393       .  A
C1563      C1571   1.384       .  A
C1563      C1580   1.416       .  A
C1564      C1579   1.425       .  A
C1564      C1572   1.391       .  A
C1565      C1577   1.403       .  A
C1565      C1573   1.387       .  A
C1566      C1580   1.403       .  A
C1566      C1574   1.388       .  A
C1567      C1575   1.388       .  A
C1567      C1578   1.445       .  A
C1568      C1576   1.386       .  A
C1568      C1579   1.443       .  A
C1569      C1570   1.370       .  A
C1569      H1581   1.082       .  S
C1570      H1582   1.082       .  S
C1571      C1572   1.370       .  A
C1571      H1583   1.082       .  S
C1572      H1584   1.082       .  S
C1573      C1574   1.360       .  A
C1573      H1585   1.082       .  S
C1574      H1586   1.082       .  S
C1575      C1576   1.390       .  A
C1575      H1587   1.082       .  S
C1576      H1588   1.082       .  S
C1577      C1765   1.481       .  S
C1578      C1789   1.521       .  S
C1579      C1777   1.524       .  S
C1580      C1753   1.480       .  S
C1591      C1592   1.414       .  A
C1591      C1768   1.472       .  S
C1592      C1741   1.488       .  S
C1593      C1594   1.403   1_545  A
C1593      H1598   1.085       .  S
C1594      C1595   1.408       .  A
C1594      C1732   1.479       .  S
C1595      C1596   1.391   1_565  A
C1595      C1756   1.468       .  S
C1596      H1597   1.087       .  S
O1599     Cu1607   2.010       .  S
O1599      C1609   1.277       .  A
O1600     Cu1607   2.007       .  S
O1600      C1610   1.278       .  A
O1601     Cu1607   2.013       .  S
O1601      C1611   1.278       .  A
O1602     Cu1607   2.019       .  S
O1602      C1612   1.279       .  A
O1603     Cu1608   2.000       .  S
O1604     Cu1608   2.003       .  S
O1605     Cu1608   2.005       .  S
O1606     Cu1608   2.003       .  S
C1609      C1729   1.490       .  S
C1610      C1717   1.488       .  S
C1611      C1705   1.484       .  S
C1612      C1744   1.490       .  S
C1613      C1780   1.611   1_545  S
C1613      C1804   1.605   1_545  S
C1614      C1615   1.412       .  A
C1614      C1720   1.480       .  S
C1615      C1696   1.473       .  S
C1616      C1617   1.394   1_545  A
C1616      H1621   1.086       .  S
C1617      C1618   1.410       .  A
C1617      C1681   1.471       .  S
C1618      C1619   1.404   1_565  A
C1618      C1708   1.485       .  S
C1619      H1620   1.085       .  S
N1622      C1627   1.351       .  A
N1622      C1626   1.358       .  A
N1622      H1654   1.041       .  S
N1623      C1630   1.341       .  A
N1623      C1631   1.342       .  A
N1624      C1629   1.349       .  A
N1624      C1628   1.356       .  A
N1624      H1655   1.044       .  S
N1625      C1632   1.355       .  A
N1625      C1633   1.359       .  A
C1626      C1634   1.384       .  A
C1626      C1642   1.414       .  A
C1627      C1643   1.416       .  A
C1627      C1635   1.385       .  A
C1628      C1636   1.384       .  A
C1628      C1645   1.410       .  A
C1629      C1644   1.419       .  A
C1629      C1637   1.389       .  A
C1630      C1642   1.397       .  A
C1630      C1638   1.387       .  A
C1631      C1645   1.398       .  A
C1631      C1639   1.387       .  A
C1632      C1640   1.385       .  A
C1632      C1643   1.424       .  A
C1633      C1641   1.386       .  A
C1633      C1644   1.430       .  A
C1634      C1635   1.373       .  A
C1634      H1646   1.082       .  S
C1635      H1647   1.077       .  S
C1636      C1637   1.377       .  A
C1636      H1648   1.081       .  S
C1637      H1649   1.083       .  S
C1638      C1639   1.368       .  A
C1638      H1650   1.082       .  S
C1639      H1651   1.082       .  S
C1640      C1641   1.381       .  A
C1640      H1652   1.081       .  S
C1641      H1653   1.080       .  S
C1642      C1693   1.478       .  S
C1643      C1669   1.504       .  S
C1644      C1660   1.546       .  S
C1645      C1684   1.478       .  S
C1656      C1849   1.602       .  S
C1657      C1662   1.434       .  A
C1658      C1659   1.411   1_655  A
C1658      H1667   1.084       .  S
C1659      S1663   1.806       .  S
C1660      C1661   1.413       .  A
C1661      C1662   1.399       .  A
C1661      H1668   1.076       .  S
C1662      S1664   1.805   1_565  S
C1669      C1674   1.408       .  A
C1670      C1671   1.415       .  A
C1670      H1679   1.083       .  S
C1671      S1675   1.808       .  S
C1672      C1673   1.422       .  A
C1673      C1674   1.398       .  A
C1673      H1680   1.082       .  S
C1674      S1676   1.805       .  S
S1675      H1678   1.407       .  S
S1676      H1677   1.407       .  S
C1681      C1686   1.412       .  A
C1682      C1683   1.399       .  A
C1682      H1691   1.084       .  S
C1683      S1687   1.805       .  S
C1684      C1685   1.400       .  A
C1685      C1686   1.391       .  A
C1685      H1692   1.084       .  S
C1686      S1688   1.806       .  S
S1687      H1690   1.404       .  S
C1693      C1698   1.407       .  A
C1694      C1695   1.400       .  A
C1694      H1703   1.084       .  S
C1695      S1699   1.805       .  S
C1696      C1697   1.407       .  A
C1697      C1698   1.394       .  A
C1697      H1704   1.084       .  S
C1698      S1700   1.804       .  S
S1700      H1701   1.405       .  S
C1705      C1710   1.416       .  A
C1706      C1707   1.395       .  A
C1706      H1715   1.084       .  S
C1707      S1711   1.806       .  S
C1708      C1709   1.403       .  A
C1709      C1710   1.405       .  A
C1709      H1716   1.082       .  S
C1710      S1712   1.808       .  S
S1711      H1714   1.407       .  S
S1712      H1713   1.407       .  S
C1717      C1718   1.409       .  A
C1718      C1719   1.401       .  A
C1718      H1727   1.084       .  S
C1719      C1720   1.411       .  A
C1719      S1723   1.805       .  S
C1721      C1722   1.397       .  A
C1721      H1728   1.085       .  S
C1722      S1724   1.802       .  S
S1723      H1726   1.405       .  S
S1724      H1725   1.408       .  S
C1729      C1734   1.420       .  A
C1730      C1731   1.395       .  A
C1730      H1739   1.083       .  S
C1731      S1735   1.805       .  S
C1732      C1733   1.400       .  A
C1733      C1734   1.400       .  A
C1733      H1740   1.083       .  S
C1734      S1736   1.801       .  S
S1735      H1738   1.405       .  S
S1736      H1737   1.405       .  S
C1741      C1742   1.404       .  A
C1742      C1743   1.406       .  A
C1742      H1751   1.082       .  S
C1743      C1744   1.417       .  A
C1743      S1747   1.807       .  S
C1745      C1746   1.395       .  A
C1745      H1752   1.084       .  S
C1746      S1748   1.807       .  S
S1747      H1750   1.407       .  S
S1748      H1749   1.401       .  S
C1753      C1754   1.402       .  A
C1754      C1755   1.400       .  A
C1754      H1763   1.083       .  S
C1755      C1756   1.410       .  A
C1755      S1759   1.806       .  S
C1757      C1758   1.396   1_455  A
C1757      H1764   1.083   1_455  S
C1758      S1760   1.805       .  S
S1759      H1762   1.407       .  S
S1760      H1761   1.404       .  S
C1765      C1770   1.411       .  A
C1766      H1775   1.084       .  S
C1767      C1768   1.412       .  A
C1768      C1769   1.403       .  A
C1769      C1770   1.395       .  A
C1769      H1776   1.084       .  S
C1770      S1772   1.805       .  S
S1771      H1774   1.406       .  S
S1772      H1773   1.404       .  S
C1777      C1782   1.411       .  A
C1778      C1779   1.420       .  A
C1778      H1787   1.082       .  S
C1779      C1780   1.434       .  A
C1779      S1783   1.800       .  S
C1781      C1782   1.415       .  A
C1781      H1788   1.076       .  S
C1782      S1784   1.804       .  S
S1783      H1786   1.406       .  S
S1784      H1785   1.404       .  S
C1789      C1794   1.413       .  A
C1790      C1791   1.420       .  A
C1790      H1799   1.084       .  S
C1791      C1792   1.457       .  A
C1791      S1795   1.810       .  S
C1793      C1794   1.411       .  A
C1793      H1800   1.082       .  S
C1794      S1796   1.803       .  S
S1795      H1798   1.391       .  S
S1796      H1797   1.407       .  S
C1801      C1802   1.398       .  A
C1802      C1803   1.415       .  A
C1802      H1811   1.084       .  S
C1803      C1804   1.451       .  A
C1803      S1807   1.808       .  S
C1805      C1806   1.412       .  A
C1805      H1812   1.074       .  S
C1806      S1808   1.804       .  S
S1807      H1810   1.391       .  S
S1808      H1809   1.406       .  S
C1813      C1818   1.418       .  A
C1814      C1815   1.420       .  A
C1814      H1823   1.083       .  S
C1815      S1819   1.811       .  S
C1816      C1817   1.420   1_545  A
C1817      C1818   1.413       .  A
C1817      H1824   1.076       .  S
C1818      S1820   1.804       .  S
S1819      H1822   1.407       .  S
S1820      H1821   1.406       .  S
C1825      C1826   1.404       .  A
C1826      C1827   1.400       .  A
C1826      H1835   1.084       .  S
C1827      C1828   1.412       .  A
C1827      S1831   1.805       .  S
C1829      C1830   1.397       .  A
C1829      H1836   1.084       .  S
C1830      S1832   1.806       .  S
S1831      H1834   1.403       .  S
S1832      H1833   1.400       .  S
C1837      C1838   1.404   1_545  A
C1838      C1839   1.397       .  A
C1838      H1847   1.084       .  S
C1839      C1840   1.410       .  A
C1839      S1843   1.804       .  S
C1841      C1842   1.396       .  A
C1841      H1848   1.084       .  S
C1842      S1844   1.806       .  S
S1843      H1846   1.404       .  S
S1844      H1845   1.403       .  S
C1849      C1854   1.450   1_545  A
C1850      C1851   1.408       .  A
C1850      H1859   1.072       .  S
C1851      S1855   1.807       .  S
C1852      C1853   1.399   1_545  A
C1853      C1854   1.417       .  A
C1853      H1860   1.082       .  S
C1854      S1856   1.806       .  S
S1855      H1858   1.407       .  S
S1856      H1857   1.407       .  S
C1861      C1866   1.403   1_545  A
C1862      C1863   1.421       .  A
C1862      H1871   1.082       .  S
C1863      S1867   1.812       .  S
C1864      C1865   1.433   1_545  A
C1865      C1866   1.404       .  A
C1865      H1872   1.076       .  S
C1866      S1868   1.805       .  S
S1867      H1870   1.406       .  S
S1868      H1869   1.405       .  S
C1873      C1874   1.405       .  A
C1874      C1875   1.399       .  A
C1874      H1883   1.084       .  S
C1875      S1879   1.803       .  S
C1876      C1877   1.400   1_545  A
C1877      C1878   1.399       .  A
C1877      H1884   1.083       .  S
C1878      S1880   1.799       .  S
S1879      H1882   1.401       .  S
S1880      H1881   1.402       .  S
C1885      C1886   1.401   1_545  A
C1886      C1887   1.402       .  A
C1886      H1895   1.084       .  S
C1887      S1891   1.798       .  S
C1888      C1889   1.411       .  A
C1889      C1890   1.400       .  A
C1889      H1896   1.083       .  S
C1890      S1892   1.804       .  S
S1891      H1894   1.402       .  S
S1892      H1893   1.401       .  S
C1897      C1898   1.403       .  A
C1898      C1899   1.400       .  A
C1898      H1907   1.084       .  S
C1899      C1900   1.413       .  A
C1899      S1903   1.806       .  S
C1901      C1902   1.395       .  A
C1901      H1908   1.084       .  S
C1902      S1904   1.809       .  S
S1903      H1906   1.403       .  S
S1904      H1905   1.398       .  S
C1909      C1914   1.407       .  A
C1910      C1911   1.395       .  A
C1910      H1919   1.084       .  S
C1911      S1915   1.804       .  S
C1912      C1913   1.403       .  A
C1913      C1914   1.395       .  A
C1913      H1920   1.084       .  S
C1914      S1916   1.800       .  S
S1915      H1918   1.404       .  S
S1916      H1917   1.403       .  S
C1921      C1922   1.401       .  A
C1922      C1923   1.398       .  A
C1922      H1931   1.084       .  S
C1923      C1924   1.418       .  A
C1923      S1927   1.805       .  S
C1925      C1926   1.403       .  A
C1925      H1932   1.083       .  S
C1926      S1928   1.802       .  S
S1927      H1930   1.400       .  S
S1928      H1929   1.408       .  S
C1933      C1938   1.416       .  A
C1934      C1935   1.397       .  A
C1934      H1943   1.084       .  S
C1935      S1939   1.808       .  S
C1936      C1937   1.402       .  A
C1937      C1938   1.400       .  A
C1937      H1944   1.081       .  S
C1938      S1940   1.802       .  S
S1939      H1942   1.404       .  S
S1940      H1941   1.408       .  S
