geometry optimzed in LAMMPS
_audit_creation_date              2020-11-30 
_audit_creation_method            'lammps2cif' 
_symmetry_space_group_name_H-M    'P1' 
_symmetry_Int_Tables_number       1 
_symmetry_cell_setting            triclinic 
loop_ 
_symmetry_equiv_pos_as_xyz 
  x,y,z 
_cell_length_a                    40.0139137 
_cell_length_b                    40.06701141034489 
_cell_length_c                    20.710025891077414 
_cell_angle_alpha                 90.80351400304981 
_cell_angle_beta                  89.10700943778883 
_cell_angle_gamma                 90.11746999613837 
loop_ 
_atom_site_label 
_atom_site_type_symbol 
_atom_site_fract_x 
_atom_site_fract_y 
_atom_site_fract_z 
_atom_site_charge 
C1          C  0.50409810  0.51095672  0.01269153    -0.01700
In2        In  0.25469113  0.49140080  0.36783061     1.36900
C3          C  0.21017291  0.51302706  0.45434813     0.78400
O4          O  0.21557637  0.47025726  0.30470164    -0.60100
O5          O  0.23569024  0.43969531  0.37751186    -0.51000
C6          C  0.28804819  0.52481586  0.27940795     0.71000
O7          O  0.28419469  0.53609319  0.33635307    -0.45800
C8          C  0.31208599  0.46602262  0.40120724     0.75800
O9          O  0.21021269  0.52277106  0.39660748    -0.57700
O10         O  0.29249469  0.45159555  0.36283857    -0.47800
O11         O  0.23587533  0.49697866  0.46947465    -0.54100
C12         C  0.21460617  0.44260178  0.33322433     0.85900
O13         O  0.26916631  0.50073200  0.26511268    -0.56000
O14         O  0.30095153  0.49270718  0.42671358    -0.59300
In15       In  0.99628712  0.74962064  0.08978060     1.36900
C16         C  0.03385152  0.71444334  0.00789787     0.78400
O17         O  0.99281609  0.70715106  0.15845927    -0.60100
O18         O  0.95969307  0.70821560  0.07890466    -0.51000
C19         C  0.01681547  0.79531517  0.17605440     0.71000
O20         O  0.02550281  0.79633064  0.11714311    -0.45800
C21         C  0.94612912  0.78545424  0.04728566     0.75800
O22         O  0.04142023  0.71799442  0.06659234    -0.57700
O23         O  0.94310012  0.76563985  0.09385905    -0.47800
O24         O  0.01219455  0.73470782  0.98914181    -0.54100
C25         C  0.96991130  0.69273503  0.12730320     0.85900
O26         O  0.00067909  0.76950356  0.19101781    -0.56000
O27         O  0.97500197  0.78631130  0.02191821    -0.59300
In28       In  0.72085335  0.96261754  0.80833677     1.36900
C29         C  0.68006610  0.97808515  0.90608203     0.78400
O30         O  0.68337526  0.99086485  0.75246101    -0.60100
O31         O  0.68421914  0.93748673  0.74404960    -0.51000
C32         C  0.77368533  0.97838110  0.73566290     0.71000
O33         O  0.76230410  0.99827528  0.77899879    -0.45800
C34         C  0.75755868  0.91981874  0.87141336     0.75800
O35         O  0.70081101  0.99924319  0.88347743    -0.57700
O36         O  0.73679515  0.91060533  0.82908376    -0.47800
O37         O  0.68177557  0.94941068  0.88003839    -0.54100
C38         C  0.66920584  0.96452936  0.73221530     0.85900
O39         O  0.75563501  0.95292418  0.72613491    -0.56000
O40         O  0.75767248  0.95084351  0.88373250    -0.59300
In41       In  0.76694977  0.52668773  0.37144654     1.36900
C42         C  0.81200915  0.51449023  0.46170163     0.78400
O43         O  0.80467691  0.50699242  0.29921523    -0.60100
O44         O  0.79648304  0.55968158  0.31019604    -0.51000
C45         C  0.71454413  0.51579541  0.29564583     0.71000
O46         O  0.72460850  0.49309327  0.33343244    -0.45800
C47         C  0.73171473  0.56559431  0.44802810     0.75800
O48         O  0.79452271  0.49075144  0.43766004    -0.57700
O49         O  0.75202761  0.57652595  0.40588401    -0.47800
O50         O  0.80512560  0.54265669  0.43960393    -0.54100
C51         C  0.81246934  0.53635295  0.28226630     0.85900
O52         O  0.73295592  0.54124180  0.29486728    -0.56000
O53         O  0.72978738  0.53410150  0.45123446    -0.59300
In54       In  0.00726847  0.23282750  0.13576740     1.36900
C55         C  0.98890128  0.19634356  0.23685124     0.78400
O56         O  0.98567358  0.19009440  0.07900426    -0.60100
O57         O  0.03858917  0.19845600  0.07888717    -0.51000
C58         C  0.99678463  0.28117558  0.04960328     0.71000
O59         O  0.97459114  0.27358295  0.09173718    -0.45800
C60         C  0.05079239  0.26781496  0.20180974     0.75800
O61         O  0.96739344  0.21377232  0.20745169    -0.57700
O62         O  0.05898824  0.24461494  0.16298652    -0.47800
O63         O  0.01816497  0.19837961  0.21406406    -0.54100
C64         C  0.01452411  0.18011816  0.06180812     0.85900
O65         O  0.02217746  0.26268026  0.05085010    -0.56000
O66         O  0.01957219  0.27261883  0.20749234    -0.59300
C67         C  0.00367904  0.98967577  0.50588429    -0.01700
C68         C  0.01217006  0.49179927  0.76932526    -0.01700
In69       In  0.51997070  0.76906181  0.65528764     1.36900
C70         C  0.49902791  0.71944913  0.72980345     0.78400
O71         O  0.54598946  0.73109411  0.59568060    -0.60100
O72         O  0.57491413  0.75975879  0.66231132    -0.51000
C73         C  0.50942844  0.80070208  0.54514041     0.71000
O74         O  0.48698688  0.78250386  0.57103151    -0.45800
C75         C  0.51020628  0.82523831  0.71817158     0.75800
O76         O  0.48865205  0.72264763  0.67261904    -0.57700
O77         O  0.53790352  0.81000987  0.71815553    -0.47800
O78         O  0.51678598  0.74332290  0.74968512    -0.54100
C79         C  0.57411796  0.73629527  0.62080889     0.85900
O80         O  0.53698384  0.80039059  0.57401229    -0.56000
O81         O  0.48625308  0.80969667  0.69213741    -0.59300
In82       In  0.48829457  0.25477003  0.64015067     1.36900
C83         C  0.51792347  0.20903075  0.56229302     0.78400
O84         O  0.46493682  0.21373742  0.69622887    -0.60100
O85         O  0.43480378  0.24199157  0.63304377    -0.51000
C86         C  0.50121022  0.29338224  0.74373341     0.71000
O87         O  0.52330093  0.28797036  0.70025556    -0.45800
C88         C  0.46706972  0.30526611  0.57349378     0.75800
O89         O  0.51985044  0.20778837  0.62313480    -0.57700
O90         O  0.44934905  0.28032511  0.58793178    -0.47800
O91         O  0.50582783  0.23589358  0.54287748    -0.54100
C92         C  0.43632454  0.21862463  0.67285464     0.85900
O93         O  0.47608181  0.27490686  0.73841705    -0.56000
O94         O  0.49733479  0.30310306  0.58955652    -0.59300
C95         C  0.49880549  0.00476135  0.26083658    -0.01700
In96       In  0.23282985  0.01552868  0.90746585     1.36900
C97         C  0.20008809  0.98733711  0.80915683     0.78400
O98         O  0.18852912  0.99642405  0.96333620    -0.60100
O99         O  0.19424729  0.04896092  0.95064803    -0.51000
C100        C  0.28216673  0.00460713  0.99129539     0.71000
O101        O  0.27651333  0.98445244  0.94487150    -0.45800
C102        C  0.26596780  0.06113592  0.84249861     0.75800
O103        O  0.21231110  0.96966959  0.85345688    -0.57700
O104        O  0.24336761  0.06849987  0.88357775    -0.47800
O105        O  0.20716305  0.01788430  0.81355187    -0.54100
C106        C  0.17619565  0.02523777  0.97042747     0.85900
O107        O  0.26060703  0.02724380  0.99773814    -0.56000
O108        O  0.27151329  0.03026625  0.83487829    -0.59300
C109        C  0.40090361  0.00322238  0.21481251    -0.11100
C110        C  0.40261865  0.99994770  0.14771701     0.11500
C111        C  0.43419780  0.99750217  0.11765329    -0.02900
C112        C  0.46293522  0.99723170  0.15616544    -0.05600
C113        C  0.46295785  0.00361178  0.22456534    -0.16400
C114        C  0.42963470  0.00381067  0.25470278     0.02500
C115        C  0.37086643  0.00005092  0.10978260     0.12500
C116        C  0.43763454  0.99631375  0.04429694     0.63100
H117        H  0.48572890  0.99148049  0.13059194     0.12500
C118        C  0.42187272  0.00205345  0.32738445     0.55200
H119        H  0.37599015  0.00483606  0.23566073     0.08300
C120        C  0.35194209  0.97074706  0.09657473    -0.05500
C121        C  0.32339303  0.97293989  0.05711669    -0.06200
C122        C  0.31248403  0.00357309  0.03285755    -0.15800
C123        C  0.33109989  0.03299575  0.04772320    -0.01400
C124        C  0.35984089  0.03058058  0.08597248    -0.09000
C125        C  0.36151035  0.93747211  0.12511301     0.65300
H126        H  0.30895533  0.95078058  0.04586969     0.10800
C127        C  0.32158763  0.06685871  0.02141007     0.63700
H128        H  0.37432867  0.05269403  0.09738526     0.08100
F129        F  0.43510213  0.97361249  0.35306691    -0.19300
F130        F  0.38787801  0.00049407  0.34074364    -0.15600
F131        F  0.43307220  0.02981347  0.35982947    -0.19100
F132        F  0.42544472  0.02560384  0.01925665    -0.22400
F133        F  0.41977295  0.96974800  0.01914084    -0.23900
F134        F  0.47054767  0.99297608  0.02374809    -0.17900
F135        F  0.29182773  0.07748967  0.04950719    -0.20400
F136        F  0.31819974  0.06458159  0.95516933    -0.21600
F137        F  0.34557246  0.09092562  0.03411092    -0.18700
F138        F  0.33993078  0.91218354  0.10644743    -0.18800
F139        F  0.36046106  0.93988138  0.19175985    -0.22700
F140        F  0.39343374  0.92861579  0.10525320    -0.24300
C141        C  0.31489613  0.10867024  0.71498525    -0.11100
C142        C  0.32745098  0.13487095  0.75281967     0.11500
C143        C  0.31650826  0.13919255  0.81766827    -0.02900
C144        C  0.29521307  0.11502963  0.84429081    -0.05600
C145        C  0.28525345  0.08691395  0.80830189    -0.16400
C146        C  0.29419485  0.08407605  0.74195349     0.02500
C147        C  0.35489756  0.15515111  0.72589000     0.12500
C148        C  0.32776384  0.16879349  0.85872201     0.63100
H149        H  0.28717813  0.11726234  0.89434026     0.12500
C150        C  0.28205070  0.05544067  0.69970354     0.55200
H151        H  0.32300697  0.10669121  0.66493795     0.08300
C152        C  0.38802200  0.14283598  0.72322450    -0.05500
C153        C  0.41371979  0.16460131  0.70505651    -0.06200
C154        C  0.40727191  0.19785174  0.68960085    -0.15800
C155        C  0.37393139  0.21002560  0.69081968    -0.01400
C156        C  0.34810827  0.18795237  0.70797678    -0.09000
C157        C  0.39631475  0.10699148  0.73999636     0.65300
H158        H  0.43926048  0.15570740  0.70257694     0.10800
C159        C  0.36555803  0.24627653  0.67746339     0.63700
H160        H  0.32239106  0.19633202  0.70949881     0.08100
F161        F  0.29726163  0.02609602  0.71748541    -0.19300
F162        F  0.28939143  0.06058097  0.63502906    -0.15600
F163        F  0.24777313  0.05225862  0.70636514    -0.19100
F164        F  0.31548023  0.19798491  0.83344476    -0.22400
F165        F  0.36228617  0.17039791  0.85970846    -0.23900
F166        F  0.31624291  0.16663597  0.92189553    -0.17900
F167        F  0.37224488  0.25334346  0.61340270    -0.20400
F168        F  0.38428933  0.26709113  0.71668243    -0.21600
F169        F  0.33214543  0.25322031  0.68968064    -0.18700
F170        F  0.43043653  0.10126063  0.73895553    -0.18800
F171        F  0.38202248  0.08541618  0.69565371    -0.22700
F172        F  0.38426625  0.09981266  0.80118813    -0.24300
C173        C  0.52942914  0.15558269  0.40880698    -0.11100
C174        C  0.51966467  0.12407853  0.43132591     0.11500
C175        C  0.51525986  0.11973212  0.49888023    -0.02900
C176        C  0.51762728  0.14778279  0.54074286    -0.05600
C177        C  0.52443124  0.17994597  0.51757755    -0.16400
C178        C  0.53194756  0.18363568  0.45070364     0.02500
C179        C  0.51500995  0.09592648  0.38333872     0.12500
C180        C  0.50722442  0.08573361  0.52658002     0.63100
H181        H  0.51231178  0.14503565  0.59180381     0.12500
C182        C  0.54219470  0.21706510  0.42305322     0.55200
H183        H  0.53407089  0.15830091  0.35749502     0.08300
C184        C  0.48582501  0.09190666  0.34649767    -0.05500
C185        C  0.48282196  0.06381407  0.30464385    -0.06200
C186        C  0.50695410  0.03787266  0.30053396    -0.15800
C187        C  0.53840052  0.04465679  0.33309858    -0.01400
C188        C  0.54102041  0.07328741  0.37374059    -0.09000
C189        C  0.45755204  0.11700913  0.35252012     0.65300
H190        H  0.46066121  0.06187057  0.27605524     0.10800
C191        C  0.57054432  0.02415721  0.32517288     0.63700
H192        H  0.56385227  0.07861839  0.39928521     0.08100
F193        F  0.51435237  0.23708435  0.41695119    -0.19300
F194        F  0.55719409  0.21334312  0.36270191    -0.15600
F195        F  0.56491613  0.23272579  0.46313114    -0.19100
F196        F  0.53293673  0.06379715  0.51200447    -0.22400
F197        F  0.47787150  0.07370863  0.50074780    -0.23900
F198        F  0.50328094  0.08700724  0.59309871    -0.17900
F199        F  0.58460841  0.02938661  0.26487058    -0.20400
F200        F  0.56495492  0.99069678  0.33439378    -0.21600
F201        F  0.59452442  0.03343098  0.36953440    -0.18700
F202        F  0.43039701  0.10783661  0.31561780    -0.18800
F203        F  0.46853438  0.14789546  0.33211085    -0.22700
F204        F  0.44686231  0.11959673  0.41620816    -0.24300
C205        C  0.50594385  0.93609359  0.39821611    -0.11100
C206        C  0.50033662  0.90719375  0.36209559     0.11500
C207        C  0.49172931  0.90990776  0.29689933    -0.02900
C208        C  0.49145112  0.94182511  0.26910692    -0.05600
C209        C  0.49796616  0.97213062  0.30411431    -0.16400
C210        C  0.50224297  0.96845071  0.37351852     0.02500
C211        C  0.50242933  0.87489065  0.39676034     0.12500
C212        C  0.48287316  0.87921237  0.25685639     0.63100
H213        H  0.48686971  0.94318067  0.21797661     0.12500
C214        C  0.50106068  0.99458444  0.42822090     0.55200
H215        H  0.51163104  0.93302831  0.44879966     0.08300
C216        C  0.53360734  0.86132434  0.41381503    -0.05500
C217        C  0.53421984  0.83510723  0.45823334    -0.06200
C218        C  0.50489767  0.82258489  0.48782656    -0.15800
C219        C  0.47347364  0.83476167  0.46734564    -0.01400
C220        C  0.47291085  0.86085232  0.42206613    -0.09000
C221        C  0.56626053  0.87559338  0.38755928     0.65300
H222        H  0.55812037  0.82544281  0.47298031     0.10800
C223        C  0.44072414  0.82178509  0.49515365     0.63700
H224        H  0.44937789  0.87198156  0.40895740     0.08100
F225        F  0.53302335  0.00062043  0.44991129    -0.19300
F226        F  0.48224075  0.98255468  0.47971501    -0.15600
F227        F  0.48623199  0.02395216  0.41349300    -0.19100
F228        F  0.45338961  0.86562076  0.28027533    -0.22400
F229        F  0.50794807  0.85565118  0.26023514    -0.23900
F230        F  0.47854702  0.88672357  0.19247064    -0.17900
F231        F  0.43888560  0.82887604  0.56066520    -0.20400
F232        F  0.43862587  0.78766570  0.48490775    -0.21600
F233        F  0.41337038  0.83623288  0.46649671    -0.18700
F234        F  0.59348029  0.85657110  0.40471416    -0.18800
F235        F  0.57098734  0.90758134  0.41159856    -0.22700
F236        F  0.56553712  0.87653124  0.32090763    -0.24300
C237        C  0.08347845  0.00817804  0.61615519    -0.11100
C238        C  0.09563753  0.97588520  0.62407894     0.11500
C239        C  0.08007847  0.94949601  0.59078272    -0.02900
C240        C  0.05070347  0.95611044  0.55684383    -0.05600
C241        C  0.03753358  0.98877304  0.54642110    -0.16400
C242        C  0.05856597  0.01595609  0.57092176     0.02500
C243        C  0.12618043  0.97157952  0.66400774     0.12500
C244        C  0.09454009  0.91443196  0.58975342     0.63100
H245        H  0.03769824  0.93456164  0.53813886     0.12500
C246        C  0.06109701  0.05289949  0.55180658     0.55200
H247        H  0.09654595  0.02825848  0.64092793     0.08300
C248        C  0.15680401  0.98790155  0.64892044    -0.05500
C249        C  0.18134879  0.99039190  0.69653890    -0.06200
C250        C  0.17761235  0.97530438  0.75700680    -0.15800
C251        C  0.14893415  0.95531314  0.76893923    -0.01400
C252        C  0.12313594  0.95481533  0.72302421    -0.09000
C253        C  0.16452332  0.00427160  0.58465256     0.65300
H254        H  0.20353502  0.00515304  0.68683066     0.10800
C255        C  0.14494503  0.93557710  0.83049649     0.63700
H256        H  0.09960474  0.94278322  0.73453270     0.08100
F257        F  0.09451717  0.06141314  0.54394414    -0.19300
F258        F  0.04816145  0.07287030  0.60096928    -0.15600
F259        F  0.04704253  0.06143250  0.49463683    -0.19100
F260        F  0.09060698  0.90013068  0.64966785    -0.22400
F261        F  0.12817902  0.91561429  0.57347494    -0.23900
F262        F  0.07899304  0.89398917  0.54479485    -0.17900
F263        F  0.14482039  0.95676538  0.88358466    -0.20400
F264        F  0.17119138  0.91338412  0.83500029    -0.21600
F265        F  0.11544706  0.91744313  0.83168355    -0.18700
F266        F  0.19581724  0.99425560  0.56267130    -0.18800
F267        F  0.16470449  0.03857150  0.59316434    -0.22700
F268        F  0.14191811  0.99589449  0.53728665    -0.24300
C269        C  0.10282431  0.06081693  0.06293251    -0.11100
C270        C  0.07857440  0.05924827  0.01457378     0.11500
C271        C  0.08446427  0.03946003  0.95855963    -0.02900
C272        C  0.11644944  0.02617892  0.94807532    -0.05600
C273        C  0.14184196  0.03107658  0.99306095    -0.16400
C274        C  0.13465148  0.04673465  0.05297558     0.02500
C275        C  0.05427958  0.08686267  0.01400200     0.12500
C276        C  0.05856898  0.03361254  0.90692168     0.63100
H277        H  0.12223002  0.01405371  0.90218538     0.12500
C278        C  0.16105374  0.04962160  0.10441962     0.55200
H279        H  0.09794507  0.07614340  0.10553455     0.08300
C280        C  0.02607264  0.08859019  0.05573692    -0.05500
C281        C  0.00934881  0.11930824  0.06276216    -0.06200
C282        C  0.02099931  0.14775337  0.03048782    -0.15800
C283        C  0.04626286  0.14467790  0.98244664    -0.01400
C284        C  0.06283010  0.11415725  0.97543444    -0.09000
C285        C  0.01544043  0.05905456  0.09607894     0.65300
H286        H  0.98988275  0.12221032  0.09937811     0.10800
C287        C  0.05896669  0.17428888  0.94437658     0.63700
H288        H  0.08433411  0.11227259  0.94305717     0.08100
F289        F  0.17313898  0.01817868  0.11777514    -0.19300
F290        F  0.14829475  0.06349155  0.16119857    -0.15600
F291        F  0.18715847  0.06943380  0.08289019    -0.19100
F292        F  0.06875472  0.04897890  0.85056006    -0.22400
F293        F  0.02735816  0.04564699  0.92481158    -0.23900
F294        F  0.05553649  0.99967683  0.89510773    -0.17900
F295        F  0.07034920  0.16405610  0.88383610    -0.20400
F296        F  0.08506023  0.18932596  0.97682972    -0.21600
F297        F  0.03382652  0.19742206  0.93586382    -0.18700
F298        F  0.98414220  0.06397908  0.12396871    -0.18800
F299        F  0.03817227  0.05433447  0.14465514    -0.22700
F300        F  0.01406705  0.03052291  0.05785195    -0.24300
C301        C  0.97097386  0.35897533  0.95331891    -0.11100
C302        C  0.00052603  0.36534135  0.91791731     0.11500
C303        C  0.02804500  0.34362943  0.92457169    -0.02900
C304        C  0.02489115  0.31620722  0.96624967    -0.05600
C305        C  0.99556280  0.30987771  0.00312380    -0.16400
C306        C  0.96785654  0.33162647  0.99573455     0.02500
C307        C  0.00295893  0.39690787  0.87992717     0.12500
C308        C  0.06105935  0.34993711  0.88935714     0.63100
H309        H  0.04614339  0.29988977  0.97158230     0.12500
C310        C  0.93521089  0.32645494  0.03236175     0.55200
H311        H  0.95046246  0.37629811  0.94844528     0.08300
C312        C  0.99119358  0.39978629  0.81648009    -0.05500
C313        C  0.99486803  0.43065848  0.78477277    -0.06200
C314        C  0.00765734  0.46022250  0.81481631    -0.15800
C315        C  0.01217608  0.45774883  0.88434554    -0.01400
C316        C  0.01390464  0.42567323  0.91186859    -0.09000
C317        C  0.97439588  0.37048767  0.78266046     0.65300
H318        H  0.98731147  0.43166939  0.73507959     0.10800
C319        C  0.01085973  0.48555497  0.93594398     0.63700
H320        H  0.02082849  0.42327611  0.96205333     0.08100
F321        F  0.91113827  0.34930128  0.01505893    -0.19300
F322        F  0.94035293  0.33014302  0.09794703    -0.15600
F323        F  0.92293649  0.29483746  0.01916473    -0.19100
F324        F  0.07432240  0.38013464  0.90952823    -0.22400
F325        F  0.05620956  0.35077085  0.82352978    -0.23900
F326        F  0.08432173  0.32528245  0.90104514    -0.17900
F327        F  0.99329587  0.47462792  0.98992289    -0.20400
F328        F  0.99433012  0.51364470  0.91774825    -0.21600
F329        F  0.04266569  0.49369982  0.95555259    -0.18700
F330        F  0.96491925  0.37823889  0.72064126    -0.18800
F331        F  0.94602619  0.36139363  0.81710164    -0.22700
F332        F  0.99581570  0.34353113  0.77867344    -0.24300
C333        C  0.00380932  0.14015981  0.37893445    -0.11100
C334        C  0.97690942  0.11800226  0.37397896     0.11500
C335        C  0.94960624  0.12628635  0.33457163    -0.02900
C336        C  0.95283046  0.15383239  0.29267492    -0.05600
C337        C  0.98179628  0.17385377  0.29226091    -0.16400
C338        C  0.00631388  0.16852326  0.34008275     0.02500
C339        C  0.98025281  0.08497964  0.40555275     0.12500
C340        C  0.91724185  0.10649239  0.33830381     0.63100
H341        H  0.93352997  0.15888457  0.25809426     0.12500
C342        C  0.03626976  0.19142233  0.34855320     0.55200
H343        H  0.02395547  0.13409533  0.41113515     0.08300
C344        C  0.99402790  0.05741269  0.37186783    -0.05500
C345        C  0.99864943  0.02745702  0.40490438    -0.06200
C346        C  0.99617042  0.02472021  0.47338914    -0.15800
C347        C  0.98203524  0.05370927  0.50712234    -0.01400
C348        C  0.97339099  0.08231867  0.47156589    -0.09000
C349        C  0.00534127  0.05991853  0.30140611     0.65300
H350        H  0.00506643  0.00641379  0.37520320     0.10800
C351        C  0.97515028  0.05704904  0.57962881     0.63700
H352        H  0.96255808  0.10383967  0.49623770     0.08100
F353        F  0.04880031  0.18927144  0.41031248    -0.19300
F354        F  0.02735136  0.22433339  0.33913448    -0.15600
F355        F  0.06129653  0.18243039  0.30497560    -0.19100
F356        F  0.90416928  0.10894758  0.40039043    -0.22400
F357        F  0.92266562  0.07319213  0.32356632    -0.23900
F358        F  0.89373526  0.11847986  0.29619627    -0.17900
F359        F  0.98257970  0.08906988  0.60112178    -0.20400
F360        F  0.99392970  0.03583447  0.61565156    -0.21600
F361        F  0.94163903  0.05136882  0.59227492    -0.18700
F362        F  0.01903689  0.03035534  0.27799311    -0.18800
F363        F  0.02948133  0.08447429  0.29560552    -0.22700
F364        F  0.97877485  0.06779618  0.26283490    -0.24300
C365        C  0.66082851  0.60700535  0.54279055    -0.11100
C366        C  0.67326614  0.63965734  0.54647432     0.11500
C367        C  0.70654408  0.64658375  0.52764829    -0.02900
C368        C  0.72538509  0.62086758  0.49883332    -0.05600
C369        C  0.71197457  0.58876643  0.48916842    -0.16400
C370        C  0.67961547  0.58111828  0.51387100     0.02500
C371        C  0.64971243  0.66655722  0.56413970     0.12500
C372        C  0.72174039  0.68105747  0.53696117     0.63100
H373        H  0.75059844  0.62595860  0.48185990     0.12500
C374        C  0.66420147  0.54657771  0.50721815     0.55200
H375        H  0.63545855  0.60249695  0.55954305     0.08300
C376        C  0.62758442  0.67944416  0.51814246    -0.05500
C377        C  0.60470127  0.70394589  0.53830496    -0.06200
C378        C  0.60309790  0.71545491  0.60253882    -0.15800
C379        C  0.62600533  0.70326623  0.64814991    -0.01400
C380        C  0.64900524  0.67866321  0.62786325    -0.09000
C381        C  0.62746158  0.66669713  0.44856262     0.65300
H382        H  0.58694444  0.71356604  0.50430129     0.10800
C383        C  0.62545921  0.71505530  0.71813692     0.63700
H384        H  0.66626190  0.66813668  0.66178521     0.08100
F385        F  0.66256648  0.53743987  0.44266099    -0.19300
F386        F  0.63209504  0.54540670  0.53302435    -0.15600
F387        F  0.68330725  0.52371751  0.53972494    -0.19100
F388        F  0.72209840  0.68910821  0.60206797    -0.22400
F389        F  0.70318860  0.70458844  0.50508546    -0.23900
F390        F  0.75428941  0.68254397  0.51347747    -0.17900
F391        F  0.64869148  0.69837627  0.75454298    -0.20400
F392        F  0.59420129  0.70954201  0.74547187    -0.21600
F393        F  0.63291592  0.74874934  0.72123693    -0.18700
F394        F  0.60545330  0.68438301  0.41115242    -0.18800
F395        F  0.61788834  0.63353692  0.44676963    -0.22700
F396        F  0.65900780  0.66970341  0.42106742    -0.24300
C397        C  0.91748691  0.49778410  0.70678188    -0.11100
C398        C  0.92219294  0.49537327  0.63999455     0.11500
C399        C  0.95472295  0.49105953  0.61500355    -0.02900
C400        C  0.98132814  0.48815174  0.65819813    -0.05600
C401        C  0.97840776  0.49323065  0.72679849    -0.16400
C402        C  0.94410223  0.49602239  0.75141764     0.02500
C403        C  0.89266534  0.49939303  0.59713478     0.12500
C404        C  0.96152405  0.49019809  0.54232333     0.63100
H405        H  0.00473954  0.48097671  0.63619785     0.12500
C406        C  0.93318342  0.49649627  0.82291200     0.55200
H407        H  0.89196960  0.50137834  0.72344811     0.08300
C408        C  0.87173515  0.47249611  0.57837144    -0.05500
C409        C  0.84574953  0.47833486  0.53428012    -0.06200
C410        C  0.83908833  0.51041143  0.51070667    -0.15800
C411        C  0.85879717  0.53785734  0.53408614    -0.01400
C412        C  0.88537844  0.53148815  0.57604120    -0.09000
C413        C  0.87637229  0.43801773  0.60623369     0.65300
H414        H  0.83026376  0.45775596  0.51818800     0.10800
C415        C  0.85234456  0.57402834  0.51604954     0.63700
H416        H  0.90117375  0.55170035  0.59283027     0.08100
F417        F  0.94435118  0.46876334  0.85426903    -0.19300
F418        F  0.89872794  0.49608531  0.83047356    -0.15600
F419        F  0.94378526  0.52493268  0.85420363    -0.19100
F420        F  0.95146130  0.51991073  0.51566925    -0.22400
F421        F  0.94416460  0.46424672  0.51369746    -0.23900
F422        F  0.99512713  0.48602265  0.52738174    -0.17900
F423        F  0.81995658  0.58283215  0.53335961    -0.20400
F424        F  0.85741759  0.57812435  0.45039569    -0.21600
F425        F  0.87349839  0.59607167  0.54746592    -0.18700
F426        F  0.85347474  0.41533043  0.58197096    -0.18800
F427        F  0.87209589  0.43964312  0.67257119    -0.22700
F428        F  0.90807724  0.42623334  0.59184597    -0.24300
C429        C  0.59041908  0.93014701  0.66492156    -0.11100
C430        C  0.56762681  0.94441657  0.70953127     0.11500
C431        C  0.57722788  0.97292970  0.74571208    -0.02900
C432        C  0.61103120  0.98243780  0.74460933    -0.05600
C433        C  0.63485244  0.96461362  0.70744164    -0.16400
C434        C  0.62387918  0.94050066  0.66211670     0.02500
C435        C  0.53868160  0.92332520  0.72799331     0.12500
C436        C  0.55320589  0.99291772  0.78801250     0.63100
H437        H  0.61926111  0.00177452  0.77795449     0.12500
C438        C  0.64692021  0.92412165  0.61257635     0.55200
H439        H  0.58271800  0.90894487  0.63555094     0.08300
C440        C  0.51418472  0.91393638  0.68268219    -0.05500
C441        C  0.49899862  0.88248329  0.68829573    -0.06200
C442        C  0.50823550  0.86062561  0.73721035    -0.15800
C443        C  0.52707013  0.87287102  0.78941875    -0.01400
C444        C  0.54251601  0.90416477  0.78371649    -0.09000
C445        C  0.50613424  0.93456728  0.62433962     0.65300
H446        H  0.48370176  0.87327783  0.64905642     0.10800
C447        C  0.53407940  0.85200022  0.84803972     0.63700
H448        H  0.56078245  0.91170485  0.81915412     0.08100
F449        F  0.67693986  0.94106627  0.60645448    -0.19300
F450        F  0.63179008  0.92390561  0.55289409    -0.15600
F451        F  0.65312487  0.89158333  0.63011819    -0.19100
F452        F  0.55587817  0.02633431  0.77269760    -0.22400
F453        F  0.56133197  0.98913539  0.85206995    -0.23900
F454        F  0.52031635  0.98333172  0.77965986    -0.17900
F455        F  0.52888470  0.87100160  0.90355439    -0.20400
F456        F  0.56692736  0.84135881  0.84573593    -0.21600
F457        F  0.51324984  0.82441208  0.85134938    -0.18700
F458        F  0.47185676  0.93825647  0.62046160    -0.18800
F459        F  0.51779050  0.91827625  0.56921324    -0.22700
F460        F  0.52024329  0.96608718  0.62736085    -0.24300
C461        C  0.85684092  0.01156335  0.66475783    -0.11100
C462        C  0.87094445  0.98179410  0.64022629     0.11500
C463        C  0.85333989  0.95145036  0.64788963    -0.02900
C464        C  0.82129054  0.95221044  0.67666679    -0.05600
C465        C  0.80683957  0.98184206  0.70165091    -0.16400
C466        C  0.82519007  0.01213331  0.69635005     0.02500
C467        C  0.90437595  0.98279797  0.60706193     0.12500
C468        C  0.86887887  0.91816501  0.62799655     0.63100
H469        H  0.80773156  0.92901936  0.68206947     0.12500
C470        C  0.81163548  0.04487087  0.72337655     0.54800
H471        H  0.87113418  0.03436684  0.65947948     0.08300
C472        C  0.90787641  0.98907685  0.54077692    -0.05500
C473        C  0.93993994  0.98779417  0.51213036    -0.06200
C474        C  0.97002034  0.98246345  0.54704918    -0.15800
C475        C  0.96530323  0.97331471  0.61445283    -0.01400
C476        C  0.93268892  0.97519570  0.64234484    -0.09000
C477        C  0.87783997  0.99850178  0.50090030     0.65300
H478        H  0.94194846  0.99224394  0.46083351     0.10800
C479        C  0.99191934  0.95916761  0.65856232     0.63700
H480        H  0.92840145  0.96989616  0.69289565     0.08100
F481        F  0.83221884  0.07152735  0.70811965    -0.19300
F482        F  0.80916679  0.04335669  0.78995077    -0.15600
F483        F  0.78045381  0.05098058  0.69820219    -0.19100
F484        F  0.89639869  0.91216967  0.66564130    -0.22400
F485        F  0.87883282  0.91855535  0.56381288    -0.23900
F486        F  0.84673713  0.89188697  0.63594556    -0.17900
F487        F  0.97935569  0.95161644  0.71936278    -0.20400
F488        F  0.01743441  0.98161412  0.66883253    -0.21600
F489        F  0.00374277  0.92947708  0.63282057    -0.18700
F490        F  0.88636029  0.00327504  0.43664968    -0.18800
F491        F  0.86422202  0.02791370  0.52497346    -0.22700
F492        F  0.85387967  0.97364526  0.50368824    -0.24300
C493        C  0.55830725  0.02241637  0.10963951    -0.11100
C494        C  0.57974699  0.99508973  0.10978485     0.11500
C495        C  0.57798293  0.97279277  0.16148155    -0.02900
C496        C  0.55118378  0.97562580  0.20616242    -0.05600
C497        C  0.52838629  0.00307018  0.20780674    -0.16400
C498        C  0.53434721  0.02852840  0.15938194     0.02500
C499        C  0.60491763  0.99145221  0.05630196     0.12500
C500        C  0.60586562  0.94770683  0.17198781     0.63100
H501        H  0.55013115  0.95704586  0.24294432     0.12500
C502        C  0.51797767  0.06310902  0.15919937     0.55200
H503        H  0.56188748  0.03994758  0.07082793     0.08300
C504        C  0.59893931  0.97070833  0.00188379    -0.05500
C505        C  0.62415359  0.96748874  0.95407483    -0.06200
C506        C  0.65447965  0.98529856  0.95749167    -0.15800
C507        C  0.65958070  0.00762745  0.01019168    -0.01400
C508        C  0.63469440  0.01003367  0.05922108    -0.09000
C509        C  0.56555831  0.95307827  0.99323183     0.65300
H510        H  0.62008664  0.95123380  0.91268576     0.10800
C511        C  0.69119203  0.02838726  0.01528019     0.63700
H512        H  0.63822190  0.02648661  0.10049838     0.08100
F513        F  0.52485957  0.08004190  0.10264820    -0.19300
F514        F  0.53055087  0.08243844  0.20889617    -0.15600
F515        F  0.48371656  0.06153983  0.16457293    -0.19100
F516        F  0.63574930  0.96468041  0.17912882    -0.22400
F517        F  0.60893035  0.92591445  0.12000575    -0.23900
F518        F  0.60042673  0.92905945  0.22693918    -0.17900
F519        F  0.69224803  0.04631071  0.07284154    -0.20400
F520        F  0.69263489  0.05087479  0.96524141    -0.21600
F521        F  0.71894179  0.00785672  0.01203816    -0.18700
F522        F  0.56517584  0.93374233  0.93739974    -0.18800
F523        F  0.54043478  0.97656853  0.98965268    -0.22700
F524        F  0.55868673  0.93238067  0.04451312    -0.24300
C525        C  0.81868732  0.84925694  0.90340258    -0.11100
C526        C  0.83199914  0.85996805  0.96220830     0.11500
C527        C  0.82002963  0.88948300  0.99258218    -0.02900
C528        C  0.79418137  0.90710841  0.96304029    -0.05600
C529        C  0.78112363  0.89687114  0.90315371    -0.16400
C530        C  0.79368488  0.86738431  0.87252974     0.02500
C531        C  0.86070928  0.84118708  0.98711082     0.12500
C532        C  0.83560019  0.90308426  0.05410422     0.63100
H533        H  0.78488125  0.92991179  0.98543987     0.12500
C534        C  0.78257550  0.85596296  0.80596673     0.55200
H535        H  0.82908400  0.82698283  0.88075152     0.08300
C536        C  0.85658908  0.81112854  0.02121653    -0.05500
C537        C  0.88527820  0.79381358  0.03972899    -0.06200
C538        C  0.91762952  0.80546522  0.02471806    -0.15800
C539        C  0.92161019  0.83578807  0.99068001    -0.01400
C540        C  0.89282735  0.85290444  0.97187846    -0.09000
C541        C  0.82210805  0.79738140  0.03766999     0.65300
H542        H  0.88257074  0.77064183  0.06559377     0.10800
C543        C  0.95575581  0.85063370  0.97531325     0.63700
H544        H  0.89506056  0.87566311  0.94451368     0.08100
F545        F  0.74896408  0.84792903  0.80771269    -0.19300
F546        F  0.79987024  0.82799739  0.78416455    -0.15600
F547        F  0.78828768  0.88111739  0.76208097    -0.19100
F548        F  0.86814804  0.91292070  0.04136200    -0.22400
F549        F  0.83568982  0.87886196  0.10095652    -0.23900
F550        F  0.81830696  0.93042533  0.07877779    -0.17900
F551        F  0.97290714  0.83009752  0.93207029    -0.20400
F552        F  0.97378141  0.85422325  0.03147654    -0.21600
F553        F  0.95334372  0.88180910  0.94778809    -0.18700
F554        F  0.82385556  0.76833493  0.07290960    -0.18800
F555        F  0.80502938  0.79025658  0.98164207    -0.22700
F556        F  0.80419235  0.82058905  0.07394821    -0.24300
C557        C  0.92590217  0.62430462  0.21887141    -0.11100
C558        C  0.92220521  0.60003063  0.16991074     0.11500
C559        C  0.93660509  0.60517603  0.10809403    -0.02900
C560        C  0.95315374  0.63557709  0.09659234    -0.05600
C561        C  0.95582406  0.66023694  0.14518146    -0.16400
C562        C  0.94270838  0.65444189  0.20768882     0.02500
C563        C  0.89632094  0.57443619  0.18175209     0.12500
C564        C  0.93488365  0.57856995  0.05522448     0.63100
H565        H  0.96389405  0.64052376  0.04932072     0.12500
C566        C  0.94465227  0.68076850  0.26102116     0.55200
H567        H  0.91384642  0.62009150  0.26526627     0.08300
C568        C  0.90069462  0.54840790  0.22630219    -0.05500
C569        C  0.87205371  0.53324377  0.25319094    -0.06200
C570        C  0.83992429  0.54398543  0.23721415    -0.15800
C571        C  0.83571633  0.56729156  0.18739893    -0.01400
C572        C  0.86421465  0.58220845  0.16041116    -0.09000
C573        C  0.93527851  0.53737763  0.24624355     0.65300
H574        H  0.87453172  0.51494637  0.29082981     0.10800
C575        C  0.80130319  0.57730744  0.16447468     0.63700
H576        H  0.86147788  0.60236434  0.12654209     0.08100
F577        F  0.97764991  0.68584185  0.27745027    -0.19300
F578        F  0.92719191  0.67134906  0.31605989    -0.15600
F579        F  0.93121417  0.71047906  0.24023668    -0.19100
F580        F  0.90223508  0.56904753  0.04435450    -0.22400
F581        F  0.95294621  0.55098786  0.07338520    -0.23900
F582        F  0.94807661  0.58981119  0.99742823    -0.17900
F583        F  0.78485648  0.59611519  0.21145000    -0.20400
F584        F  0.78273936  0.54899227  0.15078883    -0.21600
F585        F  0.80328606  0.59617126  0.10903075    -0.18700
F586        F  0.93373219  0.51251904  0.29195795    -0.18800
F587        F  0.95295196  0.56386941  0.27223847    -0.22700
F588        F  0.95249024  0.52500080  0.19279293    -0.24300
C589        C  0.04397206  0.65236025  0.86822090    -0.11100
C590        C  0.03952194  0.62231109  0.90160633     0.11500
C591        C  0.04075254  0.62284451  0.97013555    -0.02900
C592        C  0.04246581  0.65385282  0.00263331    -0.05600
C593        C  0.04303080  0.68415931  0.96938295    -0.16400
C594        C  0.04544718  0.68346618  0.90105739     0.02500
C595        C  0.03276629  0.59075357  0.86431917     0.12500
C596        C  0.03955826  0.59101160  0.00934080     0.63100
H597        H  0.04119609  0.65468326  0.05489990     0.12500
C598        C  0.04954645  0.71531273  0.86304950     0.55200
H599        H  0.04506213  0.65138994  0.81597159     0.08300
C600        C  0.00246996  0.58455349  0.83221273    -0.05500
C601        C  0.99768498  0.55333949  0.80121942    -0.06200
C602        C  0.01975928  0.52578750  0.80751725    -0.15800
C603        C  0.05132685  0.53359025  0.83843126    -0.01400
C604        C  0.05713859  0.56609663  0.86283024    -0.09000
C605        C  0.97526381  0.61092599  0.82945647     0.65300
H606        H  0.97640464  0.55117988  0.77043024     0.10800
C607        C  0.08188334  0.51105871  0.84170793     0.63700
H608        H  0.08133296  0.57252031  0.88232767     0.08100
F609        F  0.01961841  0.73244252  0.86224563    -0.19300
F610        F  0.05941896  0.70870425  0.79979277    -0.15600
F611        F  0.07371105  0.73530765  0.89107297    -0.19100
F612        F  0.06866713  0.57309436  0.99915424    -0.22400
F613        F  0.01263638  0.57157290  0.99147456    -0.23900
F614        F  0.03654580  0.59763091  0.07497766    -0.17900
F615        F  0.10331452  0.51803002  0.79085600    -0.20400
F616        F  0.07412889  0.47787175  0.84055480    -0.21600
F617        F  0.09901547  0.51680483  0.89845981    -0.18700
F618        F  0.94584904  0.59806833  0.80490788    -0.18800
F619        F  0.98561169  0.63670656  0.79028218    -0.22700
F620        F  0.96827741  0.62347254  0.89068480    -0.24300
C621        C  0.03042846  0.84575977  0.33140992    -0.11100
C622        C  0.01954304  0.87742990  0.31271622     0.11500
C623        C  0.01155476  0.88275135  0.24718407    -0.02900
C624        C  0.01360107  0.85567884  0.20296760    -0.05600
C625        C  0.02194362  0.82338197  0.22274112    -0.16400
C626        C  0.03093256  0.81833838  0.28786550     0.02500
C627        C  0.01565032  0.90441085  0.36295877     0.12500
C628        C  0.99951587  0.91657353  0.22479478     0.63100
H629        H  0.00669822  0.85912894  0.15315784     0.12500
C630        C  0.03994783  0.78398574  0.31198957     0.55200
H631        H  0.03700872  0.84231583  0.38139762     0.08300
C632        C  0.98797533  0.90607310  0.40566284    -0.05500
C633        C  0.98511248  0.93335377  0.44922796    -0.06200
C634        C  0.00816508  0.96068602  0.45131728    -0.15800
C635        C  0.03722803  0.95709544  0.40848366    -0.01400
C636        C  0.04010698  0.92900928  0.36689540    -0.09000
C637        C  0.96183175  0.87842969  0.40642054     0.65300
H638        H  0.96490173  0.93176595  0.48367007     0.10800
C639        C  0.06703970  0.98065253  0.40217884     0.63700
H640        H  0.06189622  0.92644247  0.33534307     0.08100
F641        F  0.05499291  0.78574219  0.37167933    -0.19300
F642        F  0.06198509  0.76841919  0.26918775    -0.15600
F643        F  0.01127913  0.76487360  0.31796297    -0.19100
F644        F  0.02432027  0.94022513  0.23315934    -0.22400
F645        F  0.97145991  0.92611104  0.26022591    -0.23900
F646        F  0.99119478  0.91594939  0.16015713    -0.17900
F647        F  0.09528028  0.96491894  0.42442146    -0.20400
F648        F  0.06360145  0.01028339  0.43466235    -0.21600
F649        F  0.07223164  0.98829549  0.33778125    -0.18700
F650        F  0.93516973  0.88587336  0.44749978    -0.18800
F651        F  0.97614042  0.84914387  0.42699054    -0.22700
F652        F  0.94935212  0.87342876  0.34514651    -0.24300
C653        C  0.14783220  0.38879064  0.25380381    -0.11100
C654        C  0.14395659  0.36379944  0.29973690     0.11500
C655        C  0.16340548  0.36416348  0.35593003    -0.02900
C656        C  0.18632676  0.39033034  0.36444544    -0.05600
C657        C  0.19004242  0.41593638  0.31885287    -0.16400
C658        C  0.16996004  0.41552363  0.26283730     0.02500
C659        C  0.11970529  0.33714520  0.28556563     0.12500
C660        C  0.16004039  0.33700605  0.40617399     0.63100
H661        H  0.20145487  0.39096262  0.40732460     0.12500
C662        C  0.17133795  0.44283991  0.21265355     0.55200
H663        H  0.13283120  0.38723425  0.21077566     0.08300
C664        C  0.08492701  0.34266388  0.29072528    -0.05500
C665        C  0.06334509  0.31801391  0.26691342    -0.06200
C666        C  0.07552312  0.28903308  0.23559143    -0.15800
C667        C  0.11060119  0.28294230  0.23322908    -0.01400
C668        C  0.13203020  0.30734987  0.25876325    -0.09000
C669        C  0.07068528  0.37540351  0.31682259     0.65300
H670        H  0.03666901  0.32245469  0.26877244     0.10800
C671        C  0.12594946  0.25181491  0.20217339     0.63700
H672        H  0.15887823  0.30431091  0.25465484     0.08100
F673        F  0.16099495  0.47277114  0.24034681    -0.19300
F674        F  0.15062001  0.43604963  0.16116083    -0.15600
F675        F  0.20357031  0.44598186  0.18838053    -0.19100
F676        F  0.17043284  0.30681535  0.37983751    -0.22400
F677        F  0.12708586  0.33418256  0.42649985    -0.23900
F678        F  0.17920668  0.34375232  0.45991721    -0.17900
F679        F  0.16000846  0.24992414  0.21246484    -0.20400
F680        F  0.12129307  0.25212681  0.13614047    -0.21600
F681        F  0.11141284  0.22355659  0.22810420    -0.18700
F682        F  0.03648054  0.37344657  0.32723022    -0.18800
F683        F  0.07682095  0.40044784  0.27294117    -0.22700
F684        F  0.08526333  0.38387730  0.37488540    -0.24300
C685        C  0.38962219  0.41227356  0.39810517    -0.11100
C686        C  0.39912539  0.41633555  0.46230160     0.11500
C687        C  0.38557883  0.44242257  0.50084577    -0.02900
C688        C  0.35853653  0.46033117  0.47679281    -0.05600
C689        C  0.34502358  0.45218850  0.41641230    -0.16400
C690        C  0.36233668  0.42969713  0.37409317     0.02500
C691        C  0.41692660  0.38844514  0.49123273     0.12500
C692        C  0.39836854  0.44969535  0.56819590     0.63100
H693        H  0.34613278  0.47885379  0.50720437     0.12500
C694        C  0.35113948  0.42190987  0.30575584     0.55200
H695        H  0.40125134  0.39256047  0.36932487     0.08300
C696        C  0.39903315  0.35989859  0.51142637    -0.05500
C697        C  0.41695452  0.33342215  0.53641270    -0.06200
C698        C  0.45185003  0.33463047  0.54312812    -0.15800
C699        C  0.46968925  0.36368846  0.52404979    -0.01400
C700        C  0.45167048  0.39008885  0.49716107    -0.09000
C701        C  0.36111334  0.35713739  0.50639801     0.65300
H702        H  0.40336818  0.31140978  0.55140845     0.10800
C703        C  0.50714926  0.36728574  0.53233895     0.63700
H704        H  0.46441052  0.41240657  0.48099252     0.08100
F705        F  0.32368696  0.40089399  0.30755679    -0.19300
F706        F  0.37615125  0.40619826  0.26979040    -0.15600
F707        F  0.34302260  0.45101563  0.27453202    -0.19100
F708        F  0.43220969  0.45661258  0.56479641    -0.22400
F709        F  0.39318037  0.42240001  0.60724921    -0.23900
F710        F  0.38242173  0.47691080  0.59665252    -0.17900
F711        F  0.51899439  0.39738055  0.50910868    -0.20400
F712        F  0.52357933  0.34192990  0.49888171    -0.21600
F713        F  0.51473410  0.36598309  0.59720783    -0.18700
F714        F  0.34882850  0.32841505  0.53474522    -0.18800
F715        F  0.35209673  0.35639215  0.44226393    -0.22700
F716        F  0.34585294  0.38400648  0.53718790    -0.24300
C717        C  0.09672908  0.47359244  0.66712557    -0.11100
C718        C  0.10075254  0.50477282  0.63860290     0.11500
C719        C  0.07562072  0.52883622  0.64676028    -0.02900
C720        C  0.04771673  0.52109657  0.68513189    -0.05600
C721        C  0.04360551  0.49072106  0.72009986    -0.16400
C722        C  0.06856808  0.46509478  0.70632037     0.02500
C723        C  0.12928240  0.50981255  0.59284340     0.12500
C724        C  0.07824193  0.56291958  0.61537509     0.63100
H725        H  0.02814845  0.53959134  0.68852620     0.12500
C726        C  0.06614774  0.42813887  0.72380114     0.55200
H727        H  0.11589900  0.45535814  0.65561762     0.08300
C728        C  0.16229859  0.51632275  0.61320971    -0.05500
C729        C  0.18784319  0.51930865  0.56602279    -0.06200
C730        C  0.18124861  0.51649877  0.49968817    -0.15800
C731        C  0.14784176  0.51095249  0.47958394    -0.01400
C732        C  0.12264390  0.50714737  0.52686770    -0.09000
C733        C  0.17055669  0.51967906  0.68425237     0.65300
H734        H  0.21347098  0.52298052  0.58067965     0.10800
C735        C  0.13870448  0.50720306  0.40895589     0.63700
H736        H  0.09727014  0.50149351  0.51280767     0.08100
F737        F  0.09431289  0.41032497  0.70454849    -0.19300
F738        F  0.03974314  0.41369362  0.69172713    -0.15600
F739        F  0.06316108  0.42343994  0.78928200    -0.19100
F740        F  0.07581934  0.55958539  0.54912765    -0.22400
F741        F  0.10852996  0.57762798  0.63000289    -0.23900
F742        F  0.05315451  0.58432233  0.63670064    -0.17900
F743        F  0.15554945  0.48036843  0.38171324    -0.20400
F744        F  0.14703076  0.53598867  0.37633233    -0.21600
F745        F  0.10483148  0.50164744  0.40106360    -0.18700
F746        F  0.20373384  0.52817298  0.69327234    -0.18800
F747        F  0.16452596  0.48977292  0.71483636    -0.22700
F748        F  0.15105510  0.54435440  0.71279798    -0.24300
C749        C  0.47254899  0.57833496  0.88840088    -0.11100
C750        C  0.50027097  0.59910385  0.88205968     0.11500
C751        C  0.52963208  0.59122509  0.91512872    -0.02900
C752        C  0.52983959  0.56295713  0.95490173    -0.05600
C753        C  0.50227271  0.54060867  0.96187713    -0.16400
C754        C  0.47275459  0.54879392  0.92489849     0.02500
C755        C  0.49731551  0.62943602  0.84130660     0.12500
C756        C  0.56057524  0.61318030  0.90962432     0.63100
H757        H  0.55197677  0.55927856  0.98251406     0.12500
C758        C  0.43918119  0.53031174  0.92531901     0.55200
H759        H  0.44999303  0.58584422  0.86420039     0.08300
C760        C  0.50051165  0.62785891  0.77308154    -0.05500
C761        C  0.49912434  0.65774153  0.73791807    -0.06200
C762        C  0.49410844  0.68883999  0.76873258    -0.15800
C763        C  0.48856561  0.69004497  0.83656676    -0.01400
C764        C  0.49033425  0.66021306  0.87175483    -0.09000
C765        C  0.50525058  0.59469487  0.73772849     0.65300
H766        H  0.50302550  0.65714797  0.68606108     0.10800
C767        C  0.48048699  0.72260566  0.87172020     0.63700
H768        H  0.48692940  0.66077139  0.92374420     0.08100
F769        F  0.42360003  0.53352664  0.86643306    -0.19300
F770        F  0.41840783  0.54418041  0.97232574    -0.15600
F771        F  0.44169052  0.49662846  0.93493993    -0.19100
F772        F  0.55396505  0.64430891  0.93637612    -0.22400
F773        F  0.56971526  0.61676481  0.84544056    -0.23900
F774        F  0.58756658  0.59980658  0.94129106    -0.17900
F775        F  0.46780990  0.71711148  0.93324492    -0.20400
F776        F  0.45672091  0.74011089  0.83818245    -0.21600
F777        F  0.50909034  0.74178876  0.87708894    -0.18700
F778        F  0.51052499  0.59887013  0.67212230    -0.18800
F779        F  0.47697301  0.57525413  0.74603143    -0.22700
F780        F  0.53247883  0.57795913  0.76165993    -0.24300
C781        C  0.47693688  0.36516954  0.85984436    -0.11100
C782        C  0.50814686  0.37925150  0.87277053     0.11500
C783        C  0.53740355  0.36331453  0.84863900    -0.02900
C784        C  0.53427337  0.33447212  0.80899881    -0.05600
C785        C  0.50286827  0.32102692  0.79325492    -0.16400
C786        C  0.47348167  0.33660022  0.81999734     0.02500
C787        C  0.50872504  0.41242655  0.90658869     0.12500
C788        C  0.57163423  0.37738152  0.86369793     0.63100
H789        H  0.55642375  0.32263811  0.78870268     0.12500
C790        C  0.43827635  0.32484740  0.80409674     0.55200
H791        H  0.45504899  0.37791344  0.87915242     0.08300
C792        C  0.50389288  0.44260525  0.87388681    -0.05500
C793        C  0.50224514  0.47258682  0.90966993    -0.06200
C794        C  0.50480064  0.47491932  0.97810019    -0.15800
C795        C  0.50974599  0.44336542  0.01072762    -0.01400
C796        C  0.51164278  0.41338174  0.97362542    -0.09000
C797        C  0.50033740  0.44516297  0.80102862     0.65300
H798        H  0.49944423  0.49488438  0.88123791     0.10800
C799        C  0.51578981  0.43897483  0.08304809     0.63700
H800        H  0.51579630  0.38969041  0.99713966     0.08100
F801        F  0.43366613  0.32573327  0.73805458    -0.19300
F802        F  0.41394097  0.34485008  0.83294660    -0.15600
F803        F  0.43330401  0.29274711  0.82601720    -0.19100
F804        F  0.57622065  0.37753465  0.92974320    -0.22400
F805        F  0.57420677  0.40967792  0.84145231    -0.23900
F806        F  0.59696506  0.35865586  0.83497648    -0.17900
F807        F  0.50633966  0.40738316  0.10278323    -0.20400
F808        F  0.49797932  0.46077935  0.12188695    -0.21600
F809        F  0.54944282  0.44256387  0.09505852    -0.18700
F810        F  0.52392391  0.46735442  0.77743765    -0.18800
F811        F  0.46882911  0.45715194  0.78774859    -0.22700
F812        F  0.50464615  0.41526134  0.76801233    -0.24300
C813        C  0.59766549  0.50212733  0.07301282    -0.11100
C814        C  0.59417729  0.50863106  0.13910515     0.11500
C815        C  0.56247100  0.51733825  0.16431898    -0.02900
C816        C  0.53498166  0.51758234  0.12266885    -0.05600
C817        C  0.53740633  0.51183926  0.05450203    -0.16400
C818        C  0.57073573  0.50408678  0.02968968     0.02500
C819        C  0.62483473  0.50901415  0.17966602     0.12500
C820        C  0.55761119  0.52649618  0.23546829     0.63100
H821        H  0.51111952  0.52223890  0.14521819     0.12500
C822        C  0.58079591  0.49557393  0.95986011     0.55200
H823        H  0.62242758  0.49573223  0.05480254     0.08300
C824        C  0.63977850  0.47976580  0.20387248    -0.05500
C825        C  0.66889989  0.48278899  0.24170673    -0.06200
C826        C  0.68342719  0.51405389  0.25587482    -0.15800
C827        C  0.66767791  0.54339971  0.23206409    -0.01400
C828        C  0.63933656  0.53999879  0.19312976    -0.09000
C829        C  0.62488144  0.44562225  0.18973885     0.65300
H830        H  0.68067359  0.46064703  0.26014630     0.10800
C831        C  0.67960019  0.57861860  0.24843794     0.63700
H832        H  0.62777319  0.56184856  0.17294137     0.08100
F833        F  0.58449522  0.46137805  0.95345055    -0.19300
F834        F  0.61112999  0.51050773  0.94476077    -0.15600
F835        F  0.55896877  0.50622607  0.91430706    -0.19100
F836        F  0.57515790  0.55534414  0.24973760    -0.22400
F837        F  0.56904054  0.50101256  0.27354783    -0.23900
F838        F  0.52437536  0.53212458  0.25166602    -0.17900
F839        F  0.71018342  0.58455855  0.21873889    -0.20400
F840        F  0.68223413  0.58254592  0.31466665    -0.21600
F841        F  0.65763439  0.60273507  0.22764496    -0.18700
F842        F  0.64287600  0.42038843  0.21797968    -0.18800
F843        F  0.62478654  0.43964332  0.12385005    -0.22700
F844        F  0.59242204  0.44426460  0.21340166    -0.24300
C845        C  0.34797148  0.53298846  0.13627167    -0.11100
C846        C  0.37851824  0.52940809  0.16807945     0.11500
C847        C  0.37894690  0.53046047  0.23647710    -0.02900
C848        C  0.34842290  0.53306133  0.27063679    -0.05600
C849        C  0.31764467  0.53316362  0.23897359    -0.16400
C850        C  0.31725460  0.53402679  0.17067988     0.02500
C851        C  0.40966821  0.52421199  0.12871700     0.12500
C852        C  0.41127053  0.52712061  0.27345535     0.63100
H853        H  0.34826899  0.53218669  0.32288726     0.12500
C854        C  0.28467189  0.53588404  0.13447096     0.55200
H855        H  0.34830043  0.53329626  0.08399108     0.08300
C856        C  0.41777796  0.49327014  0.09955199    -0.05500
C857        C  0.44772468  0.49035966  0.06345597    -0.06200
C858        C  0.47146418  0.51667219  0.05668310    -0.15800
C859        C  0.46240707  0.54829793  0.08771375    -0.01400
C860        C  0.43133260  0.55110036  0.12061397    -0.09000
C861        C  0.39476340  0.46321235  0.10634563     0.65300
H862        H  0.45199807  0.46684107  0.03939519     0.10800
C863        C  0.48209381  0.58111847  0.08471323     0.63700
H864        H  0.42348670  0.57493514  0.14102680     0.08100
F865        F  0.26776972  0.50585219  0.13856981    -0.19300
F866        F  0.29005052  0.54263767  0.06975571    -0.15600
F867        F  0.26491594  0.56105121  0.16082085    -0.19100
F868        F  0.43245310  0.55336486  0.25922204    -0.22400
F869        F  0.42681314  0.49739439  0.25666299    -0.23900
F870        F  0.40570477  0.52736083  0.33964189    -0.17900
F871        F  0.47154626  0.59934705  0.03273612    -0.20400
F872        F  0.51609481  0.57707519  0.08048649    -0.21600
F873        F  0.47637309  0.60020885  0.14009374    -0.18700
F874        F  0.40802280  0.43481583  0.07703060    -0.18800
F875        F  0.36442075  0.46960135  0.07812418    -0.22700
F876        F  0.38953731  0.45649617  0.17093864    -0.24300
loop_ 
_geom_bond_atom_site_label_1 
_geom_bond_atom_site_label_2 
_geom_bond_distance 
_geom_bond_site_symmetry_2 
_ccdc_geom_bond_type 
C1          C753   1.601   1_554  S
C1          C794   1.603   1_554  S
C1          C817   1.601       .  S
C1          C858   1.596       .  S
In2           O4   2.214       .  S
In2           O5   2.216       .  S
In2          O13   2.232       .  S
In2           O7   2.242       .  S
In2           O9   2.249       .  S
In2          O10   2.201       .  S
In2          O11   2.233       .  S
In2          O14   2.233       .  S
C3            O9   1.263       .  A
C3           O11   1.260       .  A
C3          C730   1.484       .  S
O4           C12   1.263       .  A
O5           C12   1.263       .  A
C6           O13   1.259       .  A
C6            O7   1.264       .  A
C6          C849   1.480       .  S
C8           O10   1.259       .  A
C8           O14   1.265       .  A
C8          C689   1.471       .  S
C12         C657   1.481       .  S
In15         O17   2.236       .  S
In15         O18   2.222       .  S
In15         O26   2.242   1_655  S
In15         O20   2.274   1_655  S
In15         O22   2.250   1_655  S
In15         O23   2.224       .  S
In15         O24   2.243   1_654  S
In15         O27   2.228       .  S
C16          O22   1.263       .  A
C16          O24   1.258   1_554  A
C16         C593   1.486   1_554  S
O17          C25   1.263       .  A
O18          C25   1.260       .  A
C19          O26   1.258       .  A
C19          O20   1.265       .  A
C19         C625   1.489       .  S
C21          O23   1.262       .  A
C21          O27   1.262       .  A
C21         C538   1.481       .  S
C25         C561   1.468       .  S
In28         O30   2.229       .  S
In28         O31   2.225       .  S
In28         O39   2.213       .  S
In28         O33   2.268       .  S
In28         O35   2.263       .  S
In28         O36   2.230       .  S
In28         O37   2.208       .  S
In28         O40   2.220       .  S
C29          O35   1.274       .  A
C29          O37   1.264       .  A
C29         C506   1.491       .  S
O30          C38   1.266       .  A
O31          C38   1.269       .  A
C32          O39   1.264       .  A
C32          O33   1.272       .  A
C32         C465   1.499       .  S
C34          O36   1.268       .  A
C34          O40   1.265       .  A
C34         C529   1.485       .  S
C38         C433   1.475       .  S
In41         O43   2.245       .  S
In41         O44   2.179       .  S
In41         O52   2.191       .  S
In41         O46   2.303       .  S
In41         O48   2.298       .  S
In41         O49   2.192       .  S
In41         O50   2.185       .  S
In41         O53   2.223       .  S
C42          O48   1.279       .  A
C42          O50   1.256       .  A
C42         C410   1.507       .  S
O43          C51   1.269       .  A
O44          C51   1.262       .  A
C45          O52   1.257       .  A
C45          O46   1.278       .  A
C45         C826   1.505       .  S
C47          O49   1.265       .  A
C47          O53   1.267       .  A
C47         C369   1.474       .  S
C51         C570   1.465       .  S
In54         O56   2.243   1_455  S
In54         O57   2.184       .  S
In54         O65   2.214       .  S
In54         O59   2.301   1_455  S
In54         O61   2.299   1_455  S
In54         O62   2.202       .  S
In54         O63   2.194       .  S
In54         O66   2.223       .  S
C55          O61   1.277       .  A
C55          O63   1.259   1_655  A
C55         C337   1.492       .  S
O56          C64   1.267   1_655  A
O57          C64   1.262       .  A
C58          O65   1.260   1_655  A
C58          O59   1.275       .  A
C58         C305   1.511       .  S
C60          O62   1.261       .  A
C60          O66   1.268       .  A
C60         C666   1.481       .  S
C64         C282   1.464       .  S
C67         C241   1.606       .  S
C67         C346   1.597   1_465  S
C67         C474   1.611   1_455  S
C67         C634   1.617       .  S
C68         C314   1.596       .  S
C68         C401   1.626   1_455  S
C68         C602   1.596       .  S
C68         C721   1.607       .  S
In69         O71   2.199       .  S
In69         O72   2.238       .  S
In69         O80   2.212       .  S
In69         O74   2.275       .  S
In69         O76   2.270       .  S
In69         O77   2.206       .  S
In69         O78   2.225       .  S
In69         O81   2.235       .  S
C70          O76   1.269       .  A
C70          O78   1.259       .  A
C70         C762   1.488       .  S
O71          C79   1.263       .  A
O72          C79   1.266       .  A
C73          O80   1.263       .  A
C73          O74   1.272       .  A
C73         C218   1.499       .  S
C75          O77   1.266       .  A
C75          O81   1.265       .  A
C75         C442   1.468       .  S
C79         C378   1.472       .  S
In82         O84   2.222       .  S
In82         O85   2.206       .  S
In82         O93   2.226       .  S
In82         O87   2.298       .  S
In82         O89   2.289       .  S
In82         O90   2.176       .  S
In82         O91   2.245       .  S
In82         O94   2.241       .  S
C83          O89   1.265       .  A
C83          O91   1.255       .  A
C83         C177   1.499       .  S
O84          C92   1.267       .  A
O85          C92   1.258       .  A
C86          O93   1.253       .  A
C86          O87   1.269       .  A
C86         C785   1.501       .  S
C88          O90   1.261       .  A
C88          O94   1.264       .  A
C88         C698   1.479       .  S
C92         C154   1.468       .  S
C95         C113   1.630       .  S
C95         C186   1.587       .  S
C95         C209   1.595   1_545  S
C95         C497   1.603       .  S
In96         O98   2.241   1_545  S
In96         O99   2.216       .  S
In96        O107   2.234       .  S
In96        O101   2.299   1_545  S
In96        O103   2.295   1_545  S
In96        O104   2.224       .  S
In96        O105   2.217       .  S
In96        O108   2.226       .  S
C97         O103   1.271       .  A
C97         O105   1.258   1_565  A
C97         C250   1.491       .  S
O98         C106   1.262   1_565  A
O99         C106   1.262       .  A
C100        O107   1.257       .  A
C100        O101   1.270   1_545  A
C100        C122   1.499   1_556  S
C102        O104   1.264       .  A
C102        O108   1.264       .  A
C102        C145   1.471       .  S
C106        C273   1.464       .  S
C109        C110   1.395   1_545  A
C109        C114   1.426       .  A
C109        H119   1.082       .  S
C110        C115   1.504   1_565  S
C110        C111   1.403       .  A
C111        C116   1.523       .  S
C111        C112   1.410       .  A
C112        C113   1.436   1_565  A
C112        H117   1.071       .  S
C113        C114   1.463       .  A
C114        C118   1.535       .  S
C115        C120   1.421   1_545  A
C115        C124   1.400       .  A
C116        F132   1.383   1_565  S
C116        F133   1.381       .  S
C116        F134   1.384       .  S
C118        F129   1.375   1_545  S
C118        F130   1.385       .  S
C118        F131   1.370       .  S
C120        C125   1.518       .  S
C120        C121   1.418       .  A
C121        C122   1.406   1_565  A
C121        H126   1.083       .  S
C122        C123   1.426       .  A
C123        C127   1.521       .  S
C123        C124   1.411       .  A
C124        H128   1.083       .  S
C125        F138   1.385       .  S
C125        F139   1.382       .  S
C125        F140   1.381       .  S
C127        F135   1.383       .  S
C127        F136   1.382   1_554  S
C127        F137   1.385       .  S
C141        C142   1.398       .  A
C141        C146   1.402       .  A
C141        H151   1.083       .  S
C142        C147   1.472       .  S
C142        C143   1.415       .  A
C143        C148   1.521       .  S
C143        C144   1.402       .  A
C144        C145   1.403       .  A
C144        H149   1.083       .  S
C145        C146   1.418       .  A
C146        C150   1.517       .  S
C147        C152   1.415       .  A
C147        C156   1.399       .  A
C148        F164   1.382       .  S
C148        F165   1.383       .  S
C148        F166   1.384       .  S
C150        F161   1.382       .  S
C150        F162   1.385       .  S
C150        F163   1.382       .  S
C152        C157   1.521       .  S
C152        C153   1.397       .  A
C153        C154   1.400       .  A
C153        H158   1.083       .  S
C154        C155   1.421       .  A
C155        C159   1.521       .  S
C155        C156   1.403       .  A
C156        H160   1.083       .  S
C157        F170   1.385       .  S
C157        F171   1.382       .  S
C157        F172   1.383       .  S
C159        F167   1.382       .  S
C159        F168   1.384       .  S
C159        F169   1.385       .  S
C173        C174   1.404       .  A
C173        C178   1.415       .  A
C173        H183   1.083       .  S
C174        C179   1.506       .  S
C174        C175   1.420       .  A
C175        C180   1.517       .  S
C175        C176   1.414       .  A
C176        C177   1.406       .  A
C176        H181   1.082       .  S
C177        C178   1.422       .  A
C178        C182   1.517       .  S
C179        C184   1.413       .  A
C179        C188   1.392       .  A
C180        F196   1.382       .  S
C180        F197   1.381       .  S
C180        F198   1.384       .  S
C182        F193   1.383       .  S
C182        F194   1.384       .  S
C182        F195   1.384       .  S
C184        C189   1.518       .  S
C184        C185   1.417       .  A
C185        C186   1.421       .  A
C185        H190   1.076       .  S
C186        C187   1.460       .  A
C187        C191   1.533       .  S
C187        C188   1.418       .  A
C188        H192   1.082       .  S
C189        F202   1.384       .  S
C189        F203   1.382       .  S
C189        F204   1.383       .  S
C191        F199   1.380       .  S
C191        F200   1.374   1_545  S
C191        F201   1.385       .  S
C205        C206   1.389       .  A
C205        C210   1.409       .  A
C205        H215   1.084       .  S
C206        C211   1.492       .  S
C206        C207   1.404       .  A
C207        C212   1.518       .  S
C207        C208   1.410       .  A
C208        C209   1.431       .  A
C208        H213   1.080       .  S
C209        C210   1.460       .  A
C210        C214   1.532       .  S
C211        C216   1.414       .  A
C211        C220   1.404       .  A
C212        F228   1.382       .  S
C212        F229   1.382       .  S
C212        F230   1.385       .  S
C214        F225   1.382   1_565  S
C214        F226   1.387       .  S
C214        F227   1.360   1_565  S
C216        C221   1.521       .  S
C216        C217   1.406       .  A
C217        C218   1.410       .  A
C217        H222   1.082       .  S
C218        C219   1.423       .  A
C219        C223   1.517       .  S
C219        C220   1.415       .  A
C220        H224   1.083       .  S
C221        F234   1.384       .  S
C221        F235   1.382       .  S
C221        F236   1.382       .  S
C223        F231   1.383       .  S
C223        F232   1.383       .  S
C223        F233   1.385       .  S
C237        C238   1.396   1_545  A
C237        C242   1.417       .  A
C237        H247   1.086       .  S
C238        C243   1.498       .  S
C238        C239   1.404       .  A
C239        C244   1.520       .  S
C239        C240   1.406       .  A
C240        C241   1.432       .  A
C240        H245   1.078       .  S
C241        C242   1.465   1_565  A
C242        C246   1.540       .  S
C243        C248   1.420       .  A
C243        C252   1.406       .  A
C244        F260   1.381       .  S
C244        F261   1.383       .  S
C244        F262   1.385       .  S
C246        F257   1.387       .  S
C246        F258   1.381       .  S
C246        F259   1.367       .  S
C248        C253   1.519   1_565  S
C248        C249   1.405       .  A
C249        C250   1.404       .  A
C249        H254   1.083   1_565  S
C250        C251   1.419       .  A
C251        C255   1.516       .  S
C251        C252   1.414       .  A
C252        H256   1.082       .  S
C253        F266   1.384   1_545  S
C253        F267   1.383       .  S
C253        F268   1.382   1_545  S
C255        F263   1.380       .  S
C255        F264   1.383       .  S
C255        F265   1.385       .  S
C269        C270   1.406       .  A
C269        C274   1.405       .  A
C269        H279   1.083       .  S
C270        C275   1.475       .  S
C270        C271   1.413   1_554  A
C271        C276   1.516       .  S
C271        C272   1.400       .  A
C272        C273   1.401       .  A
C272        H277   1.083       .  S
C273        C274   1.408   1_556  A
C274        C278   1.515       .  S
C275        C280   1.412       .  A
C275        C284   1.402   1_554  A
C276        F292   1.383       .  S
C276        F293   1.383       .  S
C276        F294   1.384   1_545  S
C278        F289   1.383       .  S
C278        F290   1.384       .  S
C278        F291   1.383       .  S
C280        C285   1.515       .  S
C280        C281   1.407       .  A
C281        C282   1.404       .  A
C281        H286   1.084   1_455  S
C282        C283   1.412   1_554  A
C283        C287   1.516       .  S
C283        C284   1.397       .  A
C284        H288   1.085       .  S
C285        F298   1.384   1_455  S
C285        F299   1.382       .  S
C285        F300   1.383       .  S
C287        F295   1.384       .  S
C287        F296   1.383       .  S
C287        F297   1.384       .  S
C301        C302   1.406   1_655  A
C301        C306   1.418       .  A
C301        H311   1.083       .  S
C302        C307   1.501       .  S
C302        C303   1.414       .  A
C303        C308   1.521       .  S
C303        C304   1.411       .  A
C304        C305   1.415   1_456  A
C304        H309   1.082       .  S
C305        C306   1.423   1_554  A
C306        C310   1.516   1_556  S
C307        C312   1.409   1_455  A
C307        C316   1.394       .  A
C308        F324   1.382       .  S
C308        F325   1.381       .  S
C308        F326   1.385       .  S
C310        F321   1.385       .  S
C310        F322   1.383       .  S
C310        F323   1.383       .  S
C312        C317   1.519       .  S
C312        C313   1.415       .  A
C313        C314   1.428   1_655  A
C313        H318   1.078       .  S
C314        C315   1.459       .  A
C315        C319   1.533       .  S
C315        C316   1.415       .  A
C316        H320   1.085       .  S
C317        F330   1.384       .  S
C317        F331   1.382       .  S
C317        F332   1.381       .  S
C319        F327   1.387   1_455  S
C319        F328   1.367   1_455  S
C319        F329   1.379       .  S
C333        C334   1.398   1_455  A
C333        C338   1.404       .  A
C333        H343   1.084       .  S
C334        C339   1.491       .  S
C334        C335   1.417       .  A
C335        C340   1.519       .  S
C335        C336   1.418       .  A
C336        C337   1.408       .  A
C336        H341   1.083       .  S
C337        C338   1.423   1_655  A
C338        C342   1.519       .  S
C339        C344   1.407       .  A
C339        C348   1.396       .  A
C340        F356   1.383       .  S
C340        F357   1.381       .  S
C340        F358   1.384       .  S
C342        F353   1.385       .  S
C342        F354   1.384       .  S
C342        F355   1.383       .  S
C344        C349   1.526   1_655  S
C344        C345   1.404       .  A
C345        C346   1.426       .  A
C345        H350   1.066   1_655  S
C346        C347   1.458       .  A
C347        C351   1.527       .  S
C347        C348   1.417       .  A
C348        H352   1.084       .  S
C349        F362   1.384       .  S
C349        F363   1.382       .  S
C349        F364   1.379   1_455  S
C351        F359   1.385       .  S
C351        F360   1.372       .  S
C351        F361   1.381       .  S
C365        C366   1.400       .  A
C365        C370   1.404       .  A
C365        H375   1.083       .  S
C366        C371   1.472       .  S
C366        C367   1.410       .  A
C367        C372   1.519       .  S
C367        C368   1.399       .  A
C368        C369   1.406       .  A
C368        H373   1.083       .  S
C369        C370   1.419       .  A
C370        C374   1.519       .  S
C371        C376   1.414       .  A
C371        C380   1.400       .  A
C372        F388   1.382       .  S
C372        F389   1.383       .  S
C372        F390   1.385       .  S
C374        F385   1.384       .  S
C374        F386   1.385       .  S
C374        F387   1.383       .  S
C376        C381   1.522       .  S
C376        C377   1.399       .  A
C377        C378   1.402       .  A
C377        H382   1.083       .  S
C378        C379   1.419       .  A
C379        C383   1.518       .  S
C379        C380   1.405       .  A
C380        H384   1.083       .  S
C381        F394   1.385       .  S
C381        F395   1.382       .  S
C381        F396   1.382       .  S
C383        F391   1.385       .  S
C383        F392   1.383       .  S
C383        F393   1.383       .  S
C397        C398   1.395       .  A
C397        C402   1.424       .  A
C397        H407   1.082       .  S
C398        C403   1.499       .  S
C398        C399   1.403       .  A
C399        C404   1.525       .  S
C399        C400   1.407       .  A
C400        C401   1.435       .  A
C400        H405   1.073   1_655  S
C401        C402   1.461       .  A
C402        C406   1.537       .  S
C403        C408   1.417       .  A
C403        C412   1.397       .  A
C404        F420   1.383       .  S
C404        F421   1.381       .  S
C404        F422   1.385       .  S
C406        F417   1.374       .  S
C406        F418   1.385       .  S
C406        F419   1.373       .  S
C408        C413   1.517       .  S
C408        C409   1.416       .  A
C409        C410   1.409       .  A
C409        H414   1.082       .  S
C410        C411   1.435       .  A
C411        C415   1.525       .  S
C411        C412   1.410       .  A
C412        H416   1.083       .  S
C413        F426   1.384       .  S
C413        F427   1.382       .  S
C413        F428   1.381       .  S
C415        F423   1.384       .  S
C415        F424   1.384       .  S
C415        F425   1.385       .  S
C429        C430   1.405       .  A
C429        C434   1.401       .  A
C429        H439   1.085       .  S
C430        C435   1.481       .  S
C430        C431   1.413       .  A
C431        C436   1.513       .  S
C431        C432   1.404       .  A
C432        C433   1.406       .  A
C432        H437   1.085   1_565  S
C433        C434   1.412       .  A
C434        C438   1.512       .  S
C435        C440   1.414       .  A
C435        C444   1.406       .  A
C436        F452   1.384   1_565  S
C436        F453   1.381       .  S
C436        F454   1.383       .  S
C438        F449   1.384       .  S
C438        F450   1.385       .  S
C438        F451   1.382       .  S
C440        C445   1.513       .  S
C440        C441   1.403       .  A
C441        C442   1.403       .  A
C441        H446   1.085       .  S
C442        C443   1.410       .  A
C443        C447   1.514       .  S
C443        C444   1.402       .  A
C444        H448   1.083       .  S
C445        F458   1.384       .  S
C445        F459   1.382       .  S
C445        F460   1.383       .  S
C447        F455   1.383       .  S
C447        F456   1.383       .  S
C447        F457   1.385       .  S
C461        C462   1.406   1_545  A
C461        C466   1.416       .  A
C461        H471   1.083       .  S
C462        C467   1.495       .  S
C462        C463   1.413       .  A
C463        C468   1.521       .  S
C463        C464   1.406       .  A
C464        C465   1.410       .  A
C464        H469   1.081       .  S
C465        C466   1.422   1_565  A
C466        C470   1.517       .  S
C467        C472   1.404       .  A
C467        C476   1.394       .  A
C468        F484   1.382       .  S
C468        F485   1.382       .  S
C468        F486   1.385       .  S
C470        F481   1.384       .  S
C470        F482   1.383       .  S
C470        F483   1.383       .  S
C472        C477   1.520       .  S
C472        C473   1.406       .  A
C473        C474   1.432       .  A
C473        H478   1.081       .  S
C474        C475   1.458       .  A
C475        C479   1.529       .  S
C475        C476   1.421       .  A
C476        H480   1.082       .  S
C477        F490   1.384   1_565  S
C477        F491   1.383   1_565  S
C477        F492   1.382       .  S
C479        F487   1.386       .  S
C479        F488   1.376   1_655  S
C479        F489   1.378   1_655  S
C493        C494   1.392   1_545  A
C493        C498   1.415       .  A
C493        H503   1.083       .  S
C494        C499   1.491       .  S
C494        C495   1.405       .  A
C495        C500   1.523       .  S
C495        C496   1.409       .  A
C496        C497   1.430   1_565  A
C496        H501   1.073       .  S
C497        C498   1.457       .  A
C498        C502   1.534       .  S
C499        C504   1.414       .  A
C499        C508   1.405   1_565  A
C500        F516   1.383       .  S
C500        F517   1.381       .  S
C500        F518   1.384       .  S
C502        F513   1.385       .  S
C502        F514   1.380       .  S
C502        F515   1.375       .  S
C504        C509   1.522   1_554  S
C504        C505   1.407   1_554  A
C505        C506   1.409       .  A
C505        H510   1.083       .  S
C506        C507   1.418   1_566  A
C507        C511   1.517       .  S
C507        C508   1.414       .  A
C508        H512   1.083       .  S
C509        F522   1.383       .  S
C509        F523   1.382       .  S
C509        F524   1.381   1_556  S
C511        F519   1.384       .  S
C511        F520   1.383   1_554  S
C511        F521   1.383       .  S
C525        C526   1.398       .  A
C525        C530   1.405       .  A
C525        H535   1.083       .  S
C526        C531   1.478       .  S
C526        C527   1.413       .  A
C527        C532   1.521   1_556  S
C527        C528   1.406       .  A
C528        C529   1.409       .  A
C528        H533   1.083       .  S
C529        C530   1.422       .  A
C530        C534   1.519       .  S
C531        C536   1.413   1_556  A
C531        C540   1.400       .  A
C532        F548   1.382       .  S
C532        F549   1.382       .  S
C532        F550   1.384       .  S
C534        F545   1.382       .  S
C534        F546   1.385       .  S
C534        F547   1.383       .  S
C536        C541   1.520       .  S
C536        C537   1.404       .  A
C537        C538   1.407       .  A
C537        H542   1.083       .  S
C538        C539   1.421   1_554  A
C539        C543   1.520       .  S
C539        C540   1.405       .  A
C540        H544   1.083       .  S
C541        F554   1.385       .  S
C541        F555   1.382   1_554  S
C541        F556   1.382       .  S
C543        F551   1.383       .  S
C543        F552   1.384   1_556  S
C543        F553   1.384       .  S
C557        C558   1.404       .  A
C557        C562   1.401       .  A
C557        H567   1.084       .  S
C558        C563   1.476       .  S
C558        C559   1.413       .  A
C559        C564   1.520       .  S
C559        C560   1.407       .  A
C560        C561   1.405       .  A
C560        H565   1.084       .  S
C561        C562   1.411       .  A
C562        C566   1.519       .  S
C563        C568   1.415       .  A
C563        C572   1.402       .  A
C564        F580   1.381       .  S
C564        F581   1.382       .  S
C564        F582   1.382   1_554  S
C566        F577   1.383       .  S
C566        F578   1.384       .  S
C566        F579   1.384       .  S
C568        C573   1.519       .  S
C568        C569   1.407       .  A
C569        C570   1.403       .  A
C569        H574   1.083       .  S
C570        C571   1.413       .  A
C571        C575   1.520       .  S
C571        C572   1.399       .  A
C572        H576   1.084       .  S
C573        F586   1.384       .  S
C573        F587   1.382       .  S
C573        F588   1.381       .  S
C575        F583   1.382       .  S
C575        F584   1.383       .  S
C575        F585   1.385       .  S
C589        C590   1.406       .  A
C589        C594   1.413       .  A
C589        H599   1.082       .  S
C590        C595   1.499       .  S
C590        C591   1.421       .  A
C591        C596   1.522   1_556  S
C591        C592   1.407   1_556  A
C592        C593   1.404   1_554  A
C592        H597   1.083       .  S
C593        C594   1.417       .  A
C594        C598   1.516       .  S
C595        C600   1.412       .  A
C595        C604   1.389       .  A
C596        F612   1.381   1_554  S
C596        F613   1.380   1_554  S
C596        F614   1.385       .  S
C598        F609   1.382       .  S
C598        F610   1.385       .  S
C598        F611   1.384       .  S
C600        C605   1.521   1_455  S
C600        C601   1.412   1_455  A
C601        C602   1.424   1_655  A
C601        H606   1.074       .  S
C602        C603   1.456       .  A
C603        C607   1.524       .  S
C603        C604   1.411       .  A
C604        H608   1.084       .  S
C605        F618   1.385       .  S
C605        F619   1.381       .  S
C605        F620   1.382       .  S
C607        F615   1.379       .  S
C607        F616   1.365       .  S
C607        F617   1.386       .  S
C621        C622   1.404       .  A
C621        C626   1.412       .  A
C621        H631   1.083       .  S
C622        C627   1.497       .  S
C622        C623   1.418       .  A
C623        C628   1.520   1_455  S
C623        C624   1.411       .  A
C624        C625   1.405       .  A
C624        H629   1.083       .  S
C625        C626   1.419       .  A
C626        C630   1.517       .  S
C627        C632   1.407   1_455  A
C627        C636   1.390       .  A
C628        F644   1.382   1_655  S
C628        F645   1.383       .  S
C628        F646   1.384       .  S
C630        F641   1.384       .  S
C630        F642   1.384       .  S
C630        F643   1.383       .  S
C632        C637   1.522       .  S
C632        C633   1.411       .  A
C633        C634   1.431   1_655  A
C633        H638   1.072       .  S
C634        C635   1.458       .  A
C635        C639   1.525       .  S
C635        C636   1.411       .  A
C636        H640   1.086       .  S
C637        F650   1.384       .  S
C637        F651   1.382       .  S
C637        F652   1.383       .  S
C639        F647   1.383       .  S
C639        F648   1.362   1_565  S
C639        F649   1.385       .  S
C653        C654   1.398       .  A
C653        C658   1.401       .  A
C653        H663   1.083       .  S
C654        C659   1.471       .  S
C654        C655   1.410       .  A
C655        C660   1.520       .  S
C655        C656   1.403       .  A
C656        C657   1.410       .  A
C656        H661   1.082       .  S
C657        C658   1.421       .  A
C658        C662   1.520       .  S
C659        C664   1.412       .  A
C659        C668   1.397       .  A
C660        F676   1.382       .  S
C660        F677   1.383       .  S
C660        F678   1.385       .  S
C662        F673   1.383       .  S
C662        F674   1.385       .  S
C662        F675   1.383       .  S
C664        C669   1.520       .  S
C664        C665   1.400       .  A
C665        C666   1.406       .  A
C665        H670   1.083       .  S
C666        C667   1.425       .  A
C667        C671   1.521       .  S
C667        C668   1.403       .  A
C668        H672   1.083       .  S
C669        F682   1.384       .  S
C669        F683   1.382       .  S
C669        F684   1.382       .  S
C671        F679   1.385       .  S
C671        F680   1.383       .  S
C671        F681   1.383       .  S
C685        C686   1.396       .  A
C685        C690   1.399       .  A
C685        H695   1.084       .  S
C686        C691   1.466       .  S
C686        C687   1.410       .  A
C687        C692   1.517       .  S
C687        C688   1.401       .  A
C688        C689   1.404       .  A
C688        H693   1.083       .  S
C689        C690   1.422       .  A
C690        C694   1.519       .  S
C691        C696   1.413       .  A
C691        C700   1.399       .  A
C692        F708   1.383       .  S
C692        F709   1.383       .  S
C692        F710   1.384       .  S
C694        F705   1.383       .  S
C694        F706   1.385       .  S
C694        F707   1.383       .  S
C696        C701   1.526       .  S
C696        C697   1.392       .  A
C697        C698   1.406       .  A
C697        H702   1.082       .  S
C698        C699   1.422       .  A
C699        C703   1.518       .  S
C699        C700   1.407       .  A
C700        H704   1.083       .  S
C701        F714   1.385       .  S
C701        F715   1.382       .  S
C701        F716   1.382       .  S
C703        F711   1.385       .  S
C703        F712   1.383       .  S
C703        F713   1.384       .  S
C717        C718   1.397       .  A
C717        C722   1.422       .  A
C717        H727   1.082       .  S
C718        C723   1.488       .  S
C718        C719   1.401       .  A
C719        C724   1.523       .  S
C719        C720   1.397       .  A
C720        C721   1.433       .  A
C720        H725   1.080       .  S
C721        C722   1.456       .  A
C722        C726   1.532       .  S
C723        C728   1.416       .  A
C723        C732   1.399       .  A
C724        F740   1.381       .  S
C724        F741   1.383       .  S
C724        F742   1.385       .  S
C726        F737   1.386       .  S
C726        F738   1.379       .  S
C726        F739   1.375       .  S
C728        C733   1.517       .  S
C728        C729   1.409       .  A
C729        C730   1.406       .  A
C729        H734   1.083       .  S
C730        C731   1.422       .  A
C731        C735   1.519       .  S
C731        C732   1.404       .  A
C732        H736   1.083       .  S
C733        F746   1.385       .  S
C733        F747   1.382       .  S
C733        F748   1.381       .  S
C735        F743   1.379       .  S
C735        F744   1.382       .  S
C735        F745   1.385       .  S
C749        C750   1.391       .  A
C749        C754   1.413       .  A
C749        H759   1.084       .  S
C750        C755   1.495       .  S
C750        C751   1.408       .  A
C751        C756   1.521       .  S
C751        C752   1.410       .  A
C752        C753   1.426       .  A
C752        H757   1.073       .  S
C753        C754   1.458       .  A
C754        C758   1.533       .  S
C755        C760   1.417       .  A
C755        C764   1.404       .  A
C756        F772   1.382       .  S
C756        F773   1.382       .  S
C756        F774   1.385       .  S
C758        F769   1.386       .  S
C758        F770   1.382       .  S
C758        F771   1.371       .  S
C760        C765   1.519       .  S
C760        C761   1.412       .  A
C761        C762   1.405       .  A
C761        H766   1.083       .  S
C762        C763   1.419       .  A
C763        C767   1.518       .  S
C763        C764   1.411       .  A
C764        H768   1.083       .  S
C765        F778   1.384       .  S
C765        F779   1.382       .  S
C765        F780   1.383       .  S
C767        F775   1.384       .  S
C767        F776   1.384       .  S
C767        F777   1.382       .  S
C781        C782   1.397       .  A
C781        C786   1.410       .  A
C781        H791   1.083       .  S
C782        C787   1.494       .  S
C782        C783   1.416       .  A
C783        C788   1.515       .  S
C783        C784   1.415       .  A
C784        C785   1.407       .  A
C784        H789   1.082       .  S
C785        C786   1.432       .  A
C786        C790   1.524       .  S
C787        C792   1.409       .  A
C787        C796   1.395       .  A
C788        F804   1.383       .  S
C788        F805   1.383       .  S
C788        F806   1.384       .  S
C790        F801   1.384       .  S
C790        F802   1.385       .  S
C790        F803   1.383       .  S
C792        C797   1.523       .  S
C792        C793   1.404       .  A
C793        C794   1.424       .  A
C793        H798   1.084       .  S
C794        C795   1.457   1_556  A
C795        C799   1.533       .  S
C795        C796   1.418   1_554  A
C796        H800   1.087       .  S
C797        F810   1.384       .  S
C797        F811   1.383       .  S
C797        F812   1.381       .  S
C799        F807   1.386       .  S
C799        F808   1.372       .  S
C799        F809   1.380       .  S
C813        C814   1.395       .  A
C813        C818   1.416       .  A
C813        H823   1.085       .  S
C814        C819   1.497       .  S
C814        C815   1.407       .  A
C815        C820   1.523       .  S
C815        C816   1.409       .  A
C816        C817   1.429       .  A
C816        H821   1.072       .  S
C817        C818   1.454       .  A
C818        C822   1.529   1_554  S
C819        C824   1.418       .  A
C819        C828   1.396       .  A
C820        F836   1.382       .  S
C820        F837   1.382       .  S
C820        F838   1.385       .  S
C822        F833   1.383       .  S
C822        F834   1.385       .  S
C822        F835   1.369       .  S
C824        C829   1.518       .  S
C824        C825   1.418       .  A
C825        C826   1.409       .  A
C825        H830   1.082       .  S
C826        C827   1.432       .  A
C827        C831   1.524       .  S
C827        C828   1.407       .  A
C828        H832   1.083       .  S
C829        F842   1.384       .  S
C829        F843   1.382       .  S
C829        F844   1.382       .  S
C831        F839   1.383       .  S
C831        F840   1.384       .  S
C831        F841   1.385       .  S
C845        C846   1.406       .  A
C845        C850   1.411       .  A
C845        H855   1.083       .  S
C846        C851   1.492       .  S
C846        C847   1.417       .  A
C847        C852   1.520       .  S
C847        C848   1.405       .  A
C848        C849   1.404       .  A
C848        H853   1.083       .  S
C849        C850   1.416       .  A
C850        C854   1.517       .  S
C851        C856   1.408       .  A
C851        C860   1.392       .  A
C852        F868   1.381       .  S
C852        F869   1.382       .  S
C852        F870   1.385       .  S
C854        F865   1.382       .  S
C854        F866   1.384       .  S
C854        F867   1.383       .  S
C856        C861   1.521       .  S
C856        C857   1.407       .  A
C857        C858   1.425       .  A
C857        H862   1.073       .  S
C858        C859   1.457       .  A
C859        C863   1.533       .  S
C859        C860   1.412       .  A
C860        H864   1.084       .  S
C861        F874   1.385       .  S
C861        F875   1.382       .  S
C861        F876   1.381       .  S
C863        F871   1.381       .  S
C863        F872   1.372       .  S
C863        F873   1.386       .  S
