geometry optimzed in LAMMPS
_audit_creation_date              2020-11-30 
_audit_creation_method            'lammps2cif' 
_symmetry_space_group_name_H-M    'P1' 
_symmetry_Int_Tables_number       1 
_symmetry_cell_setting            triclinic 
loop_ 
_symmetry_equiv_pos_as_xyz 
  x,y,z 
_cell_length_a                    31.00717631869146 
_cell_length_b                    30.980655670895292 
_cell_length_c                    36.724753083790674 
_cell_angle_alpha                 90.11425397790582 
_cell_angle_beta                  89.99760458781417 
_cell_angle_gamma                 119.9233185754779 
loop_ 
_atom_site_label 
_atom_site_type_symbol 
_atom_site_fract_x 
_atom_site_fract_y 
_atom_site_fract_z 
_atom_site_charge 
O1          O  0.06194959  0.55307460  0.53915196    -0.72860
O2          O  0.01001574  0.44849013  0.46095932    -0.73840
O3          O  0.06440853  0.55457549  0.46183884    -0.62460
O4          O  0.00883779  0.44849764  0.53779076    -0.70870
O5          O  0.93764457  0.44879251  0.53779769    -0.70420
O6          O  0.99250407  0.55407662  0.45982542    -0.61670
O7          O  0.93854906  0.44881544  0.45995633    -0.74180
O8          O  0.99115453  0.55473453  0.53708878    -0.72960
Cu9        Cu  0.03875448  0.50113824  0.49988681     1.04560
Cu10       Cu  0.96242269  0.50163809  0.49863287     1.04330
C11         C  0.03445435  0.57018109  0.55044716     0.93340
C12         C  0.96610911  0.43196182  0.44833440     0.92480
C13         C  0.03713916  0.57090083  0.44879315     0.84630
C14         C  0.96498565  0.43209801  0.55033593     0.90900
O15         O  0.49363076  0.55487550  0.96205805    -0.72860
O16         O  0.43716675  0.44804494  0.03807903    -0.73840
O17         O  0.49112599  0.55309962  0.03951466    -0.62460
O18         O  0.43946294  0.44943315  0.96075727    -0.70870
O19         O  0.50886803  0.44554006  0.96276320    -0.70420
O20         O  0.56234812  0.55227739  0.03910043    -0.61670
O21         O  0.50772620  0.44667843  0.04024473    -0.74180
O22         O  0.56298707  0.55095364  0.96229861    -0.72960
Cu23       Cu  0.46283599  0.50133140  0.00005781     1.04560
Cu24       Cu  0.53790192  0.49874002  0.00114549     1.04330
C25         C  0.53745494  0.56980368  0.94995835     0.93340
C26         C  0.46342388  0.43087400  0.05174358     0.92480
C27         C  0.53525256  0.56929586  0.05144650     0.84630
C28         C  0.46592243  0.43125267  0.94911535     0.90900
O29         O  0.94417544  0.49262991  0.95889246    -0.72860
O30         O  0.99653262  0.44122118  0.03701292    -0.73840
O31         O  0.94210389  0.49212622  0.03657371    -0.62460
O32         O  0.99898151  0.44182701  0.96014848    -0.70870
O33         O  0.06950596  0.51449537  0.96062934    -0.70420
O34         O  0.01300545  0.56445207  0.03761759    -0.61670
O35         O  0.06757542  0.51308923  0.03862057    -0.74180
O36         O  0.01443200  0.56549057  0.96082495    -0.72960
Cu37       Cu  0.96799462  0.46445645  0.99811129     1.04560
Cu38       Cu  0.04368525  0.54192540  0.99944347     1.04330
C39         C  0.97097570  0.53733398  0.94775692     0.93340
C40         C  0.04003460  0.46864659  0.05022060     0.92480
C41         C  0.96875620  0.53622773  0.04910026     0.84630
C42         C  0.04304912  0.47022571  0.94835957     0.90900
N43         N  0.77830622  0.13781962  0.20635938    -0.27200
N44         N  0.79593265  0.11239019  0.18916896    -0.35060
C45         C  0.76768887  0.08998442  0.15993072     0.01140
C46         C  0.72883340  0.09994988  0.15879048     0.07160
C47         C  0.73735868  0.13115650  0.18858223    -0.05940
H48         H  0.77582986  0.06837849  0.14098395     0.07830
H49         H  0.71507659  0.14730249  0.19710297     0.09030
Cu50       Cu  0.85318597  0.10193438  0.20691024     0.44170
Cu51       Cu  0.81215310  0.18096700  0.25265382     0.41990
Cu52       Cu  0.91225231  0.16165907  0.28757139     0.43880
N53         N  0.90204300  0.08563594  0.23330550    -0.34590
N54         N  0.92371753  0.10762633  0.26415042    -0.28840
C55         C  0.95261433  0.08940313  0.27565651    -0.04940
C56         C  0.94894922  0.05425120  0.25061883     0.07270
C57         C  0.91647715  0.05272322  0.22412984     0.01070
H58         H  0.97517081  0.10134702  0.30006687     0.08720
H59         H  0.90466870  0.02980954  0.19986640     0.07800
N60         N  0.89556372  0.21401322  0.30736712    -0.36040
N61         N  0.85925284  0.22120967  0.29577399    -0.28220
C62         C  0.85940453  0.25773330  0.31596825    -0.03460
C63         C  0.89724982  0.27363609  0.34165580     0.05150
C64         C  0.91966860  0.24550181  0.33480082     0.03250
H65         H  0.83354774  0.27126964  0.31250639     0.08350
H66         H  0.95170549  0.24789475  0.34842269     0.07180
N67         N  0.13879613  0.77271917  0.29205464    -0.27200
N68         N  0.10868523  0.78547151  0.30833292    -0.35060
C69         C  0.08703978  0.75532521  0.33691696     0.01140
C70         C  0.10390290  0.72177482  0.33846950     0.07160
C71         C  0.13659620  0.73361403  0.30970586    -0.05940
H72         H  0.06050654  0.75731924  0.35496719     0.07830
H73         H  0.15758789  0.71557394  0.30239415     0.09030
Cu74       Cu  0.09571550  0.84146324  0.29088881     0.44170
Cu75       Cu  0.18254984  0.80993120  0.24733525     0.41990
Cu76       Cu  0.15968966  0.90562195  0.21065444     0.43880
N77         N  0.08417920  0.89475764  0.26609138    -0.34590
N78         N  0.10715825  0.91772118  0.23586302    -0.28840
C79         C  0.09122729  0.94908450  0.22577810    -0.04940
C80         C  0.05667069  0.94583523  0.25106213     0.07270
C81         C  0.05309668  0.91103478  0.27626290     0.01070
H82         H  0.10394418  0.97259783  0.20191139     0.08720
H83         H  0.02952236  0.89836794  0.30010728     0.07800
N84         N  0.21353767  0.89086760  0.19133365    -0.36040
N85         N  0.22226699  0.85619498  0.20432695    -0.28220
C86         C  0.26058776  0.85777866  0.18590305    -0.03460
C87         C  0.27651318  0.89522499  0.16003948     0.05150
C88         C  0.24589971  0.91540541  0.16450182     0.03250
H89         H  0.27639271  0.83430952  0.19165491     0.08350
H90         H  0.24703402  0.94585932  0.14933309     0.07180
C91         C  0.97645892  0.02642925  0.25086978     0.02370
C92         C  0.95001346  0.97366758  0.25105939     0.02370
C93         C  0.97641291  0.94723818  0.25111795     0.02370
C94         C  0.02913782  0.97364694  0.25105603     0.02370
C95         C  0.05559797  0.02645186  0.25087649     0.02370
C96         C  0.02920151  0.05284234  0.25065142     0.02610
N97         N  0.63932554  0.77367908  0.20794098    -0.27200
N98         N  0.68304022  0.78210253  0.19595380    -0.35060
C99         C  0.67619247  0.75177936  0.16778712     0.01140
C100        C  0.62571796  0.72337820  0.16084344     0.07160
C101        C  0.60336784  0.73780154  0.18725225    -0.05940
H102        H  0.70616030  0.75058006  0.15366600     0.07830
H103        H  0.56396530  0.72395092  0.19075299     0.09030
Cu104      Cu  0.75125569  0.83596692  0.21569897     0.44170
Cu105      Cu  0.63156806  0.81246405  0.25138402     0.41990
Cu106      Cu  0.75101510  0.90820196  0.28981031     0.43880
N107        N  0.81605344  0.89265705  0.23784100    -0.34590
N108        N  0.81613649  0.91881218  0.26625871    -0.28840
C109        C  0.86344056  0.95167805  0.27532303    -0.04940
C110        C  0.89464225  0.94610540  0.25115014     0.07270
C111        C  0.86321356  0.90848259  0.22762676     0.01070
H112        H  0.87431117  0.97754052  0.29788700     0.08720
H113        H  0.87383833  0.89334822  0.20501935     0.07800
N114        N  0.68189867  0.89451769  0.30722473    -0.36040
N115        N  0.63857435  0.85985778  0.29403486    -0.28220
C116        C  0.60184676  0.86212895  0.31198180    -0.03460
C117        C  0.62329359  0.90057719  0.33712325     0.05150
C118        C  0.67396972  0.91986403  0.33350491     0.03250
H119        H  0.56254452  0.83815172  0.30671167     0.08350
H120        H  0.70314695  0.94988314  0.34911148     0.07180
N121        N  0.22862892  0.36319525  0.29211871    -0.27200
N122        N  0.21042188  0.32071022  0.31005953    -0.35060
C123        C  0.23812812  0.32725495  0.33971535     0.01140
C124        C  0.27724219  0.37585113  0.34039410     0.07160
C125        C  0.26944141  0.39779758  0.30990613    -0.05940
H126        H  0.22953958  0.29811765  0.35925721     0.07830
H127        H  0.29214675  0.43590998  0.30095902     0.09030
Cu128      Cu  0.15312392  0.25246102  0.29327304     0.44170
Cu129      Cu  0.19532295  0.37154128  0.24511519     0.41990
Cu130      Cu  0.08846750  0.25201814  0.21663984     0.43880
N131        N  0.10350593  0.18668914  0.26790855    -0.34590
N132        N  0.07971129  0.18663378  0.23816293    -0.28840
C133        C  0.05092782  0.13948059  0.22665941    -0.04940
C134        C  0.05662873  0.10824796  0.25070398     0.07270
C135        C  0.09038891  0.13953584  0.27651036     0.01070
H136        H  0.02687773  0.12864646  0.20304171     0.08720
H137        H  0.10382704  0.12877383  0.30002294     0.07800
N138        N  0.10533192  0.32067110  0.19613474    -0.36040
N139        N  0.14512957  0.36380695  0.20405690    -0.28220
C140        C  0.14523971  0.39916259  0.18256347    -0.03460
C141        C  0.10353205  0.37702544  0.16001723     0.05150
C142        C  0.07880099  0.32745323  0.17035285     0.03250
H143        H  0.17389726  0.43798274  0.18304382     0.08350
H144        H  0.04366045  0.29782905  0.16040214     0.07180
N145        N  0.36656762  0.22477273  0.20860745    -0.27200
N146        N  0.32344999  0.21169596  0.19278429    -0.35060
C147        C  0.33107764  0.24183231  0.16443017     0.01140
C148        C  0.38141959  0.27582504  0.16196694     0.07160
C149        C  0.40285683  0.26393027  0.19059548    -0.05940
H150        H  0.30176715  0.23934421  0.14702739     0.07830
H151        H  0.44159616  0.28306845  0.19856212     0.09030
Cu152      Cu  0.25469330  0.15607987  0.21047125     0.44170
Cu153      Cu  0.37351914  0.18870075  0.25403145     0.41990
Cu154      Cu  0.25443314  0.08779188  0.28723358     0.43880
N155        N  0.18953419  0.10356104  0.23509261    -0.34590
N156        N  0.18952757  0.07882891  0.26430723    -0.28840
C157        C  0.14230460  0.04843648  0.27485731    -0.04940
C158        C  0.11098509  0.05402748  0.25084452     0.07270
C159        C  0.14227826  0.08935385  0.22596864     0.01070
H160        H  0.13152942  0.02369830  0.29802844     0.08720
H161        H  0.13148615  0.10343078  0.20284758     0.07800
N162        N  0.32328136  0.10342633  0.30689694    -0.36040
N163        N  0.36649324  0.14071883  0.29605621    -0.28220
C164        C  0.40302891  0.14090107  0.31601563    -0.03460
C165        C  0.38180932  0.10133414  0.34033937     0.05150
C166        C  0.33114529  0.07865688  0.33355893     0.03250
H167        H  0.44186555  0.16874358  0.31346211     0.08350
H168        H  0.30173601  0.04641582  0.34709922     0.07180
N169        N  0.86307504  0.63635006  0.20458167    -0.27200
N170        N  0.89632688  0.68001101  0.19106586    -0.35060
C171        C  0.91918649  0.67274631  0.16264944     0.01140
C172        C  0.89945424  0.62210626  0.15772349     0.07160
C173        C  0.86433569  0.60005108  0.18508298    -0.05940
H174        H  0.94836263  0.70235614  0.14685583     0.07830
H175        H  0.84073211  0.56058436  0.18994634     0.09030
Cu176      Cu  0.91065729  0.74850984  0.21088321     0.44170
Cu177      Cu  0.81662601  0.62891778  0.24810309     0.41990
Cu178      Cu  0.84465339  0.74774752  0.28987788     0.43880
N179        N  0.92192509  0.81324568  0.23589010    -0.34590
N180        N  0.89817968  0.81303081  0.26579036    -0.28840
C181        C  0.91380784  0.86030596  0.27597887    -0.04940
C182        C  0.94895599  0.89180084  0.25107872     0.07270
C183        C  0.95311914  0.86062700  0.22601184     0.01070
H184        H  0.90039195  0.87098148  0.29958723     0.08720
H185        H  0.97708996  0.87159728  0.20237949     0.07800
N186        N  0.78892830  0.67868243  0.30727632    -0.36040
N187        N  0.77737614  0.63556373  0.29185417    -0.28220
C188        C  0.73840845  0.59879865  0.30975605    -0.03460
C189        C  0.72553466  0.62002880  0.33784494     0.05150
C190        C  0.75825690  0.67052065  0.33548330     0.03250
H191        H  0.72151614  0.55957271  0.30334225     0.08350
H192        H  0.75967851  0.69930985  0.35301766     0.07180
N193        N  0.86458776  0.22695802  0.70708618    -0.27200
N194        N  0.89374688  0.21303859  0.69078739    -0.35060
C195        C  0.91618545  0.24298899  0.66235239     0.01140
C196        C  0.90127991  0.27819271  0.66068400     0.07160
C197        C  0.86792926  0.26648514  0.68920184    -0.05940
H198        H  0.94164161  0.23921615  0.64427080     0.07830
H199        H  0.84839563  0.28589973  0.69685968     0.09030
Cu200      Cu  0.90624814  0.15674355  0.70784115     0.44170
Cu201      Cu  0.82223019  0.19151115  0.75301980     0.41990
Cu202      Cu  0.83960856  0.08948158  0.78488030     0.43880
N203        N  0.91955346  0.10471098  0.73250337    -0.34590
N204        N  0.89541824  0.08049690  0.76201061    -0.28840
C205        C  0.91266106  0.05048629  0.77277602    -0.04940
C206        C  0.94916364  0.05574350  0.74853569     0.07270
C207        C  0.95260259  0.09049007  0.72333304     0.01070
H208        H  0.89916482  0.02614739  0.79618133     0.08720
H209        H  0.97709080  0.10419639  0.70000911     0.07800
N210        N  0.78666795  0.10509646  0.80490173    -0.36040
N211        N  0.78140199  0.14316114  0.79502971    -0.28220
C212        C  0.74517013  0.14309445  0.81531889    -0.03460
C213        C  0.72590514  0.10231410  0.83874497     0.05150
C214        C  0.75356541  0.07939773  0.83099784     0.03250
H215        H  0.73488790  0.17151618  0.81332440     0.08350
H216        H  0.75017485  0.04616826  0.84327645     0.07180
N217        N  0.13695771  0.77176337  0.70870923    -0.27200
N218        N  0.10570018  0.78425829  0.69421954    -0.35060
C219        C  0.08349186  0.75532553  0.66519781     0.01140
C220        C  0.10194807  0.72328394  0.66056866     0.07160
C221        C  0.13537780  0.73424563  0.68897623    -0.05940
H222        H  0.05556934  0.75740578  0.64885911     0.07830
H223        H  0.15759525  0.71695457  0.69444976     0.09030
Cu224      Cu  0.09383358  0.84030574  0.71272473     0.44170
Cu225      Cu  0.18121131  0.80834464  0.75369097     0.41990
Cu226      Cu  0.16428140  0.91062686  0.78821343     0.43880
N227        N  0.08437344  0.89571640  0.73571727    -0.34590
N228        N  0.10937965  0.92095047  0.76474428    -0.28840
C229        C  0.09371554  0.95276161  0.77437994    -0.04940
C230        C  0.05741272  0.94755416  0.74985594     0.07270
C231        C  0.05263318  0.91114472  0.72563871     0.01070
H232        H  0.10787584  0.97799896  0.79734411     0.08720
H233        H  0.02767292  0.89667346  0.70256623     0.07800
N234        N  0.21795947  0.89465868  0.80655220    -0.36040
N235        N  0.22322541  0.85687306  0.79539120    -0.28220
C236        C  0.26074094  0.85721328  0.81417161    -0.03460
C237        C  0.28030330  0.89760830  0.83760217     0.05150
C238        C  0.25235070  0.92039299  0.83210468     0.03250
H239        H  0.27332785  0.83059013  0.81060727     0.08350
H240        H  0.25626040  0.95295868  0.84604830     0.07180
C241        C  0.97699639  0.02819687  0.74861968     0.02370
C242        C  0.95067290  0.97542359  0.74834530     0.02370
C243        C  0.97686926  0.94883833  0.74866080     0.02370
C244        C  0.02965846  0.97525128  0.74937351     0.02370
C245        C  0.05601003  0.02811269  0.74940415     0.02370
C246        C  0.02967534  0.05460000  0.74898826     0.02370
N247        N  0.36657051  0.13768118  0.70786375    -0.27200
N248        N  0.32295545  0.10486895  0.69403309    -0.35060
C249        C  0.33004189  0.08270971  0.66511812     0.01140
C250        C  0.38064612  0.10299224  0.65972685     0.07160
C251        C  0.40273653  0.13739272  0.68770202    -0.05940
H252        H  0.30014736  0.05323637  0.64966913     0.07830
H253        H  0.44215061  0.16078473  0.69285942     0.09030
Cu254      Cu  0.25469650  0.09092318  0.71324302     0.44170
Cu255      Cu  0.37399257  0.18101534  0.75335671     0.41990
Cu256      Cu  0.25466379  0.16030538  0.78945086     0.43880
N257        N  0.18989442  0.08180320  0.73600655    -0.34590
N258        N  0.18972380  0.10676582  0.76510341    -0.28840
C259        C  0.14239756  0.09174123  0.77444674    -0.04940
C260        C  0.11131684  0.05580143  0.74972467     0.07270
C261        C  0.14276349  0.05060432  0.72563459     0.01070
H262        H  0.13142511  0.10585717  0.79749232     0.08720
H263        H  0.13216428  0.02561935  0.70253702     0.07800
N264        N  0.32368412  0.21284786  0.80910611    -0.36040
N265        N  0.36695848  0.21982150  0.79712791    -0.28220
C266        C  0.40372069  0.25685249  0.81653969    -0.03460
C267        C  0.38230691  0.27400635  0.84155886     0.05150
C268        C  0.33170271  0.24549542  0.83591100     0.03250
H269        H  0.44302961  0.27120234  0.81200863     0.08350
H270        H  0.30270746  0.24832399  0.85022846     0.07180
N271        N  0.22947837  0.36518545  0.70541377    -0.27200
N272        N  0.21949716  0.32168947  0.69162765    -0.35060
C273        C  0.25130459  0.32927288  0.66433031     0.01140
C274        C  0.28333498  0.37993630  0.66076488     0.07160
C275        C  0.26832353  0.40165569  0.68725523    -0.05940
H276        H  0.25114667  0.29990224  0.64823783     0.07830
H277        H  0.28354699  0.44102540  0.69234373     0.09030
Cu278      Cu  0.16372254  0.25319669  0.70997716     0.44170
Cu279      Cu  0.18864011  0.37238949  0.74767657     0.41990
Cu280      Cu  0.09673612  0.25411773  0.78846894     0.43880
N281        N  0.10920903  0.18862381  0.73428911    -0.34590
N282        N  0.08509147  0.18888074  0.76385828    -0.28840
C283        C  0.05315192  0.14160196  0.77364186    -0.04940
C284        C  0.05729836  0.11005761  0.74889961     0.07270
C285        C  0.09315008  0.14121395  0.72428350     0.01070
H286        H  0.02876678  0.13095317  0.79702655     0.08720
H287        H  0.10677616  0.13020903  0.70097094     0.07800
N288        N  0.11040321  0.32345168  0.80610177    -0.36040
N289        N  0.14236198  0.36636204  0.79085527    -0.28220
C290        C  0.14054645  0.40350070  0.80868058    -0.03460
C291        C  0.10606138  0.38284251  0.83654241     0.05150
C292        C  0.08799589  0.33215858  0.83416477     0.03250
H293        H  0.16362000  0.44265683  0.80247834     0.08350
H294        H  0.06040212  0.30358151  0.85156761     0.07180
N295        N  0.63885745  0.85690200  0.70535041    -0.27200
N296        N  0.68160741  0.89491895  0.69429569    -0.35060
C297        C  0.67267127  0.92069795  0.66904137     0.01140
C298        C  0.62202868  0.89780911  0.66358916     0.07160
C299        C  0.60151347  0.85719426  0.68673809    -0.05940
H300        H  0.70112237  0.95331970  0.65519047     0.07830
H301        H  0.56243529  0.83038038  0.69018834     0.09030
Cu302      Cu  0.75135625  0.91139729  0.71210821     0.44170
Cu303      Cu  0.63339414  0.80855263  0.74689687     0.41990
Cu304      Cu  0.75283457  0.85041193  0.79193378     0.43880
N305        N  0.81685865  0.92241501  0.73505146    -0.34590
N306        N  0.81733052  0.90019604  0.76552908    -0.28840
C307        C  0.86463056  0.91485497  0.77465534    -0.04940
C308        C  0.89543603  0.94795294  0.74850582     0.07270
C309        C  0.86389859  0.95183486  0.72371166     0.01070
H310        H  0.87579105  0.90268247  0.79865304     0.08720
H311        H  0.87440629  0.97487620  0.69959959     0.07800
N312        N  0.68575941  0.79342948  0.81048803    -0.36040
N313        N  0.64266491  0.77553766  0.79347239    -0.28220
C314        C  0.60835840  0.73550202  0.81192540    -0.03460
C315        C  0.63103827  0.72782666  0.84205358     0.05150
C316        C  0.67998937  0.76622873  0.84028951     0.03250
H317        H  0.56985931  0.71334431  0.80368471     0.08350
H318        H  0.70980857  0.77496400  0.85922179     0.07180
N319        N  0.86580877  0.63806682  0.79272043    -0.27200
N320        N  0.89867671  0.68184629  0.80636317    -0.35060
C321        C  0.92141394  0.67495311  0.83496862     0.01140
C322        C  0.90166218  0.62434948  0.84014638     0.07160
C323        C  0.86685967  0.60200568  0.81252035    -0.05940
H324        H  0.95067663  0.70487728  0.85056651     0.07830
H325        H  0.84348477  0.56250220  0.80754577     0.09030
Cu326      Cu  0.91196284  0.74991917  0.78687260     0.44170
Cu327      Cu  0.82059114  0.63042310  0.74846804     0.41990
Cu328      Cu  0.84086230  0.74913933  0.71097806     0.43880
N329        N  0.92168911  0.81458050  0.76315124    -0.34590
N330        N  0.89636307  0.81451559  0.73423867    -0.28840
C331        C  0.91207436  0.86189582  0.72441759    -0.04940
C332        C  0.94884610  0.89329667  0.74859014     0.07270
C333        C  0.95373850  0.86187096  0.77287505     0.01070
H334        H  0.89770789  0.87271670  0.70148591     0.08720
H335        H  0.97893599  0.87258911  0.79581044     0.07800
N336        N  0.78618935  0.67929043  0.69331128    -0.36040
N337        N  0.77931196  0.63634913  0.70607187    -0.28220
C338        C  0.74150333  0.59884356  0.68772933    -0.03460
C339        C  0.72365808  0.61936405  0.66269095     0.05150
C340        C  0.75270569  0.67023080  0.66690642     0.03250
H341        H  0.72792291  0.55967209  0.69240138     0.08350
H342        H  0.75012026  0.69863945  0.65157147     0.07180
O343        O  0.49448386  0.93630166  0.53925957    -0.72860
O344        O  0.43985468  0.98994106  0.46430975    -0.73840
O345        O  0.49224339  0.93672980  0.46200798    -0.62460
O346        O  0.44211696  0.99011217  0.54092791    -0.70870
O347        O  0.51369429  0.06176391  0.54078631    -0.70420
O348        O  0.56360083  0.00811165  0.46208714    -0.61670
O349        O  0.51143495  0.06139731  0.46323361    -0.74180
O350        O  0.56551441  0.00835040  0.53959815    -0.72960
Cu351      Cu  0.46473438  0.96074535  0.50168794     1.04560
Cu352      Cu  0.54113842  0.03736087  0.50140018     1.04330
C353        C  0.53848881  0.96402648  0.55150856     0.93340
C354        C  0.46674938  0.03403934  0.45204630     0.92480
C355        C  0.53596038  0.96428774  0.44929398     0.84630
C356        C  0.46969328  0.03433292  0.55298841     0.90900
O357        O  0.55517868  0.05941773  0.96064409    -0.72860
O358        O  0.44969635  0.01032463  0.03755859    -0.73840
O359        O  0.55511538  0.06080207  0.03806119    -0.62460
O360        O  0.44992649  0.00878672  0.96002999    -0.70870
O361        O  0.44642986  0.93550741  0.96191518    -0.70420
O362        O  0.55236111  0.98802810  0.03849733    -0.61670
O363        O  0.44737984  0.93779614  0.03908461    -0.74180
O364        O  0.55224976  0.98643303  0.96150364    -0.72960
Cu365      Cu  0.50245885  0.03733445  0.99902700     1.04560
Cu366      Cu  0.49950871  0.95943171  0.00022985     1.04330
C367        C  0.57074757  0.03070152  0.94911616     0.93340
C368        C  0.43227779  0.96675491  0.05098704     0.92480
C369        C  0.57044237  0.03240372  0.05068546     0.84630
C370        C  0.43153438  0.96393464  0.94875848     0.90900
O371        O  0.45324643  0.44004481  0.46064347    -0.72860
O372        O  0.55846144  0.49161610  0.53775971    -0.73840
O373        O  0.45239551  0.43899524  0.53755261    -0.62460
O374        O  0.55840281  0.49226800  0.46062024    -0.70870
O375        O  0.55743513  0.56351711  0.46074884    -0.70420
O376        O  0.45242496  0.51071849  0.53870483    -0.61670
O377        O  0.55760793  0.56289644  0.53865568    -0.74180
O378        O  0.45168068  0.51069684  0.46101225    -0.72960
Cu379      Cu  0.50565007  0.46328490  0.49915860     1.04560
Cu380      Cu  0.50488359  0.53956215  0.49978461     1.04330
C381        C  0.43565070  0.46675418  0.44848572     0.93340
C382        C  0.57444845  0.53537776  0.55049853     0.92480
C383        C  0.43566418  0.46628119  0.55013294     0.84630
C384        C  0.57415305  0.53613433  0.44835850     0.90900
C385        C  0.68355208  0.59342925  0.63580299    -0.00070
C386        C  0.69367270  0.57573652  0.60363060    -0.11940
C387        C  0.65825456  0.55584075  0.57564747     0.02170
C388        C  0.61216209  0.55415014  0.57965516    -0.00150
C389        C  0.60169593  0.57081592  0.61222679    -0.11880
C390        C  0.63677011  0.58984340  0.64042039     0.02050
H391        H  0.72977783  0.57870245  0.60000649     0.15030
H392        H  0.56588891  0.56858072  0.61572437     0.15030
C393        C  0.62371768  0.60459357  0.67409051     0.36690
C394        C  0.67098185  0.53966045  0.54249928     0.36590
N395        N  0.61301537  0.61586807  0.70122192    -0.43660
N396        N  0.68140813  0.52673075  0.51600945    -0.43650
C397        C  0.59670345  0.91317316  0.63701620    -0.00070
C398        C  0.57000632  0.88087127  0.60835079    -0.11940
C399        C  0.55087013  0.89664795  0.58001343     0.02170
C400        C  0.55798585  0.94538172  0.58046830    -0.00150
C401        C  0.58408455  0.97728984  0.60950540    -0.11880
C402        C  0.60308653  0.96151407  0.63778965     0.02050
H403        H  0.56591192  0.84400923  0.60734014     0.15030
H404        H  0.58936956  0.01459111  0.61021503     0.15030
C405        C  0.62784175  0.99509778  0.66781042     0.36690
C406        C  0.52736387  0.86346331  0.54961271     0.36590
N407        N  0.64728587  0.02189674  0.69199406    -0.43660
N408        N  0.50900300  0.83688251  0.52515211    -0.43650
C409        C  0.32264128  0.40448723  0.63270853    -0.00070
C410        C  0.31283001  0.38441699  0.59733546    -0.11940
C411        C  0.34896307  0.40469457  0.57001511     0.02170
C412        C  0.39608381  0.44581221  0.57784311    -0.00150
C413        C  0.40591485  0.46667367  0.61287963    -0.11880
C414        C  0.36981839  0.44617020  0.64040672     0.02050
H415        H  0.27660946  0.35287277  0.59089896     0.15030
H416        H  0.44237598  0.49808184  0.61901213     0.15030
C417        C  0.38334900  0.46663759  0.67667055     0.36690
C418        C  0.33640178  0.38363701  0.53383316     0.36590
N419        N  0.39450916  0.48298740  0.70574539    -0.43660
N420        N  0.32623782  0.36699157  0.50478329    -0.43650
C421        C  0.44938973  0.05433584  0.58018055    -0.00070
C422        C  0.40558546  0.05456536  0.57152962    -0.11940
C423        C  0.38398242  0.07253487  0.59621998     0.02170
C424        C  0.40526208  0.08884030  0.63118912    -0.00150
C425        C  0.45013633  0.08998320  0.63938669    -0.11880
C426        C  0.47253468  0.07335633  0.61406240     0.02050
H427        H  0.38873314  0.04156470  0.54497981     0.15030
H428        H  0.46716795  0.10271600  0.66592497     0.15030
C429        C  0.51809863  0.07444946  0.62400704     0.36690
C430        C  0.34156469  0.07602829  0.58399363     0.36590
N431        N  0.55469621  0.07561615  0.63220016    -0.43660
N432        N  0.30777285  0.07899636  0.57391339    -0.43650
C433        C  0.32116824  0.91304496  0.86406178    -0.00070
C434        C  0.31552099  0.88122648  0.89300876    -0.11940
C435        C  0.35101832  0.89696568  0.92095794     0.02170
C436        C  0.39328641  0.94519397  0.91982566    -0.00150
C437        C  0.39932963  0.97648376  0.89035622    -0.11880
C438        C  0.36384095  0.96073424  0.86250715     0.02050
H439        H  0.28236972  0.84477645  0.89449458     0.15030
H440        H  0.43208647  0.01323584  0.88895360     0.15030
C441        C  0.37261089  0.99358109  0.83209592     0.36690
C442        C  0.34152530  0.86427289  0.95159794     0.36590
N443        N  0.37983506  0.01973350  0.80757745    -0.43660
N444        N  0.33373038  0.83823572  0.97628554    -0.43650
C445        C  0.68597652  0.08589702  0.86703396    -0.00070
C446        C  0.68409908  0.05312457  0.89438051    -0.11940
C447        C  0.64684360  0.03432985  0.92089886     0.02170
C448        C  0.61058203  0.04908843  0.92128803    -0.00150
C449        C  0.61269798  0.08260690  0.89474111    -0.11880
C450        C  0.64928712  0.10053508  0.86750419     0.02050
H451        H  0.71211089  0.04206440  0.89557550     0.15030
H452        H  0.58474694  0.09392980  0.89470754     0.15030
C453        C  0.64626647  0.13214385  0.84004819     0.36690
C454        C  0.64787301  0.00113064  0.94802697     0.36590
N455        N  0.64292052  0.15738988  0.81836520    -0.43660
N456        N  0.64870082  0.97443981  0.96966133    -0.43650
C457        C  0.68681550  0.59494405  0.36585072    -0.00070
C458        C  0.63647865  0.57243724  0.35589408    -0.11940
C459        C  0.59907269  0.55294039  0.38251903     0.02170
C460        C  0.61210187  0.55536428  0.41955365    -0.00150
C461        C  0.66226944  0.57666959  0.42937738    -0.11880
C462        C  0.69963291  0.59654953  0.40287432     0.02050
H463        H  0.62652351  0.57141845  0.32747106     0.15030
H464        H  0.67226928  0.57839933  0.45783129     0.15030
C465        C  0.75087955  0.61790045  0.41418131     0.36690
C466        C  0.54769099  0.53122989  0.37141644     0.36590
N467        N  0.79197774  0.63485869  0.42312235    -0.43660
N468        N  0.50649682  0.51387196  0.36260188    -0.43650
C469        C  0.40597451  0.08673995  0.36912429    -0.00070
C470        C  0.37748783  0.06120287  0.39977371    -0.11940
C471        C  0.39658016  0.04401767  0.42700265     0.02170
C472        C  0.44584511  0.05326338  0.42453867    -0.00150
C473        C  0.47509736  0.07997895  0.39464386    -0.11880
C474        C  0.45551163  0.09601868  0.36672710     0.02050
H475        H  0.33985898  0.05447480  0.40271665     0.15030
H476        H  0.51282730  0.08663870  0.39237984     0.15030
C477        C  0.48637475  0.11901784  0.33526531     0.36690
C478        C  0.36486847  0.01772975  0.45747479     0.36590
N479        N  0.51152487  0.13719005  0.31015110    -0.43660
N480        N  0.33909803  0.99646569  0.48166893    -0.43650
C481        C  0.39591140  0.44537241  0.42018045    -0.00070
C482        C  0.37177609  0.39376614  0.41419948    -0.11940
C483        C  0.33426476  0.37059956  0.38814266     0.02170
C484        C  0.31854703  0.39898731  0.36758269    -0.00150
C485        C  0.34324100  0.45087449  0.37307439    -0.11880
C486        C  0.38177123  0.47423079  0.39875564     0.02050
H487        H  0.38246764  0.37093821  0.42987222     0.15030
H488        H  0.33237300  0.47349081  0.35736750     0.15030
C489        C  0.40695409  0.52785818  0.40145568     0.36690
C490        C  0.31495283  0.31797801  0.38244357     0.36590
N491        N  0.42728824  0.57087475  0.40333934    -0.43660
N492        N  0.30004778  0.27580189  0.37835999    -0.43650
C493        C  0.55515997  0.94635830  0.41921143    -0.00070
C494        C  0.59490520  0.98204123  0.39827574    -0.11940
C495        C  0.61613041  0.96792165  0.37049078     0.02170
C496        C  0.59817182  0.91698347  0.36338690    -0.00150
C497        C  0.55711896  0.88115457  0.38304959    -0.11880
C498        C  0.53547966  0.89524941  0.41077686     0.02050
H499        H  0.60946804  0.02140274  0.40343974     0.15030
H500        H  0.54291579  0.84192670  0.37754812     0.15030
C501        C  0.49435490  0.85625288  0.43064615     0.36690
C502        C  0.65510398  0.00659475  0.34883862     0.36590
N503        N  0.46126931  0.82476818  0.44633085    -0.43660
N504        N  0.68612649  0.03762637  0.33139883    -0.43650
C505        C  0.31825342  0.91253671  0.13385120    -0.00070
C506        C  0.34656813  0.96376215  0.12674800    -0.11940
C507        C  0.38437917  0.98246214  0.10063501     0.02170
C508        C  0.39419466  0.94937698  0.08034736    -0.00150
C509        C  0.36665434  0.89813273  0.08822443    -0.11880
C510        C  0.32909843  0.87955747  0.11467607     0.02050
H511        H  0.33926044  0.98955330  0.14186413     0.15030
H512        H  0.37366016  0.87213859  0.07312183     0.15030
C513        C  0.30082882  0.82635813  0.12010542     0.36690
C514        C  0.41280793  0.03585662  0.09605881     0.36590
N515        N  0.27834088  0.78368286  0.12435915    -0.43660
N516        N  0.43553616  0.07866000  0.09257591    -0.43650
C517        C  0.68732472  0.08141981  0.13170306    -0.00070
C518        C  0.66224134  0.10831625  0.12650586    -0.11940
C519        C  0.62359320  0.09301498  0.10095319     0.02170
C520        C  0.60992622  0.05039353  0.07913308    -0.00150
C521        C  0.63428362  0.02307982  0.08484052    -0.11880
C522        C  0.67173835  0.03737532  0.11096462     0.02050
H523        H  0.67281171  0.14165961  0.14237033     0.15030
H524        H  0.62378603  0.98974070  0.06891213     0.15030
C525        C  0.69106389  0.00405863  0.11651912     0.36690
C526        C  0.59765749  0.12081732  0.09887587     0.36590
N527        N  0.70587176  0.97668354  0.12047364    -0.43660
N528        N  0.57666921  0.14292098  0.09750512    -0.43650
C529        C  0.94823804  0.55535290  0.07677549    -0.00070
C530        C  0.93844031  0.59324063  0.06693724    -0.11940
C531        C  0.92084190  0.61414408  0.09262099     0.02170
C532        C  0.91354992  0.59759893  0.12914342    -0.00150
C533        C  0.92219816  0.55865559  0.13873634    -0.11880
C534        C  0.93968667  0.53762715  0.11286160     0.02050
H535        H  0.94442419  0.60640486  0.03902654     0.15030
H536        H  0.91694162  0.54585354  0.16670246     0.15030
C537        C  0.95110046  0.49981643  0.12420614     0.36690
C538        C  0.90894453  0.65128384  0.08043832     0.36590
N539        N  0.96064653  0.46974638  0.13314786    -0.43660
N540        N  0.89919447  0.68087966  0.07064306    -0.43650
C541        C  0.05825482  0.44732207  0.07835219    -0.00070
C542        C  0.04199302  0.39633991  0.07629234    -0.11940
C543        C  0.05768481  0.37325967  0.10137822     0.02170
C544        C  0.08853993  0.40078523  0.13105719    -0.00150
C545        C  0.10500624  0.45213586  0.13310223    -0.11880
C546        C  0.09060020  0.47559523  0.10693420     0.02050
H547        H  0.01767113  0.37436101  0.05418154     0.15030
H548        H  0.12860970  0.47403116  0.15548824     0.15030
C549        C  0.10786429  0.52810418  0.11094912     0.36690
C550        C  0.04325786  0.32196907  0.09417878     0.36590
N551        N  0.12171747  0.57019979  0.11414985    -0.43660
N552        N  0.03140821  0.28090206  0.08786030    -0.43650
C553        C  0.06330050  0.45119461  0.92035453    -0.00070
C554        C  0.06567278  0.46634906  0.88409829    -0.11940
C555        C  0.08040033  0.44532364  0.85627207     0.02170
C556        C  0.09313777  0.40861995  0.86479699    -0.00150
C557        C  0.09170847  0.39443984  0.90123458    -0.11880
C558        C  0.07724925  0.41557606  0.92894260     0.02050
H559        H  0.05452421  0.49347469  0.87740132     0.15030
H560        H  0.10199589  0.36671751  0.90809026     0.15030
C561        C  0.07787842  0.40072121  0.96604737     0.36690
C562        C  0.07893153  0.45958826  0.81910869     0.36590
N563        N  0.07909215  0.38885357  0.99569549    -0.43660
N564        N  0.07743717  0.47087424  0.78931572    -0.43650
C565        C  0.95115872  0.55734217  0.92025192    -0.00070
C566        C  0.94677296  0.59881913  0.92949900    -0.11940
C567        C  0.92861686  0.61973658  0.90437966     0.02170
C568        C  0.91605905  0.60005456  0.86867519    -0.00150
C569        C  0.91920702  0.55753809  0.85978311    -0.11880
C570        C  0.93642760  0.53597613  0.88532558     0.02050
H571        H  0.95679526  0.61439798  0.95672577     0.15030
H572        H  0.90954567  0.54196039  0.83256663     0.15030
C573        C  0.94082463  0.49343654  0.87465766     0.36690
C574        C  0.92103268  0.65976744  0.91666694     0.36590
N575        N  0.94447822  0.45940695  0.86615906    -0.43660
N576        N  0.91467968  0.69161864  0.92665391    -0.43650
C577        C  0.44264423  0.39250908  0.08104252    -0.00070
C578        C  0.47124610  0.37191183  0.09399425    -0.11940
C579        C  0.45296743  0.33476443  0.12080491     0.02170
C580        C  0.40492203  0.31734506  0.13537509    -0.00150
C581        C  0.37691534  0.33872348  0.12314115    -0.11880
C582        C  0.39497201  0.37570632  0.09644919     0.02050
H583        H  0.50790797  0.38422929  0.08276181     0.15030
H584        H  0.34037049  0.32651236  0.13456750     0.15030
C585        C  0.36313015  0.39517258  0.08577084     0.36690
C586        C  0.48359575  0.31391554  0.13140770     0.36590
N587        N  0.33733989  0.41050379  0.07737646    -0.43660
N588        N  0.50848542  0.29750520  0.13973801    -0.43650
C589        C  0.44657353  0.39303537  0.91989703    -0.00070
C590        C  0.46260740  0.35783593  0.91842433    -0.11940
C591        C  0.44322658  0.31943196  0.89250109     0.02170
C592        C  0.40709277  0.31583402  0.86748620    -0.00150
C593        C  0.39210072  0.35167075  0.86823433    -0.11880
C594        C  0.41181713  0.39037459  0.89375561     0.02050
H595        H  0.48930284  0.35942319  0.93823484     0.15030
H596        H  0.36492647  0.34950161  0.84860840     0.15030
C597        C  0.39680688  0.42757327  0.89156442     0.36690
C598        C  0.45876568  0.28259443  0.89355169     0.36590
N599        N  0.38489441  0.45744250  0.88958264    -0.43660
N600        N  0.47109120  0.25297318  0.89449185    -0.43650
C601        C  0.60127390  0.68548689  0.13167617    -0.00070
C602        C  0.55448503  0.64336184  0.13836790    -0.11940
C603        C  0.53164611  0.60532000  0.11231795     0.02170
C604        C  0.55604068  0.60897241  0.07912019    -0.00150
C605        C  0.60198833  0.65133427  0.07201719    -0.11880
C606        C  0.62428329  0.68985934  0.09749954     0.02050
H607        H  0.53627004  0.63946175  0.16433213     0.15030
H608        H  0.62016132  0.65469113  0.04607354     0.15030
C609        C  0.66948448  0.73419222  0.08684346     0.36690
C610        C  0.48449390  0.56187385  0.12090388     0.36590
N611        N  0.70559317  0.76966150  0.07803053    -0.43660
N612        N  0.44676466  0.52694885  0.12769558    -0.43650
C613        C  0.55986014  0.60976547  0.92200037    -0.00070
C614        C  0.61161994  0.63423905  0.91723727    -0.11940
C615        C  0.63558760  0.67202130  0.89150247     0.02170
C616        C  0.60770993  0.68730203  0.86981891    -0.00150
C617        C  0.55572026  0.66255246  0.87448012    -0.11880
C618        C  0.53168101  0.62404850  0.89994257     0.02050
H619        H  0.63390582  0.62366728  0.93370408     0.15030
H620        H  0.53342175  0.67327886  0.85825842     0.15030
C621        C  0.47804800  0.59920967  0.90185162     0.36690
C622        C  0.68854411  0.69223416  0.88762834     0.36590
N623        N  0.43505695  0.57935873  0.90314908    -0.43660
N624        N  0.73099613  0.70777414  0.88520868    -0.43650
C625        C  0.94664750  0.39169463  0.42099659    -0.00070
C626        C  0.94890691  0.34871029  0.42887394    -0.11940
C627        C  0.93089397  0.30904725  0.40422367     0.02170
C628        C  0.91190520  0.31279579  0.37003341    -0.00150
C629        C  0.90858269  0.35554397  0.36251553    -0.11880
C630        C  0.92541771  0.39473913  0.38780194     0.02050
H631        H  0.96380064  0.34565150  0.45487056     0.15030
H632        H  0.89391551  0.35889544  0.33653665     0.15030
C633        C  0.92234793  0.43839939  0.37851084     0.36690
C634        C  0.93004437  0.26409815  0.41576607     0.36590
N635        N  0.91978214  0.47332520  0.37104161    -0.43660
N636        N  0.92916434  0.22805456  0.42522653    -0.43650
C637        C  0.91818041  0.31955479  0.63415256    -0.00070
C638        C  0.88394392  0.33254645  0.62036550    -0.11940
C639        C  0.89782934  0.36926161  0.59341392     0.02170
C640        C  0.94714574  0.39385251  0.57972141    -0.00150
C641        C  0.98155309  0.38178112  0.59469667    -0.11880
C642        C  0.96781012  0.34556072  0.62162235     0.02050
H643        H  0.84583769  0.31311433  0.63005975     0.15030
H644        H  0.01990695  0.40094421  0.58554050     0.15030
C645        C  0.00625836  0.33755036  0.63676666     0.36690
C646        C  0.86037257  0.38010771  0.58030143     0.36590
N647        N  0.03728604  0.33140166  0.64877823    -0.43660
N648        N  0.83018536  0.38870458  0.56998800    -0.43650
C649        C  0.05312443  0.60890342  0.57875853    -0.00070
C650        C  0.05940331  0.65556668  0.56994708    -0.11940
C651        C  0.07770346  0.69399757  0.59562851     0.02170
C652        C  0.08778148  0.68519165  0.63158830    -0.00150
C653        C  0.08187886  0.63837123  0.64029065    -0.11880
C654        C  0.06478978  0.60028539  0.61411780     0.02050
H655        H  0.05073978  0.66223900  0.54265061     0.15030
H656        H  0.08926152  0.63107491  0.66778516     0.15030
C657        C  0.05689876  0.55194117  0.62456416     0.36690
C658        C  0.08810687  0.74264524  0.58366981     0.36590
N659        N  0.05019757  0.51304843  0.63286867    -0.43660
N660        N  0.09676593  0.78166513  0.57392173    -0.43650
C661        C  0.08979314  0.68222311  0.36567263    -0.00070
C662        C  0.10639731  0.69572866  0.40159366    -0.11940
C663        C  0.09106778  0.65960324  0.42890626     0.02170
C664        C  0.05719314  0.60940841  0.42048703    -0.00150
C665        C  0.04121575  0.59577901  0.38445742    -0.11880
C666        C  0.05779944  0.63171389  0.35691351     0.02050
H667        H  0.13130045  0.73458567  0.40827748     0.15030
H668        H  0.01572634  0.55704885  0.37788999     0.15030
C669        C  0.04043348  0.61617089  0.32015337     0.36690
C670        C  0.11024716  0.67500154  0.46530064     0.36590
N671        N  0.02659642  0.60362331  0.29067622    -0.43660
N672        N  0.12638387  0.68776854  0.49425532    -0.43650
loop_ 
_geom_bond_atom_site_label_1 
_geom_bond_atom_site_label_2 
_geom_bond_distance 
_geom_bond_site_symmetry_2 
_ccdc_geom_bond_type 
O1           Cu9   2.005       .  S
O1           C11   1.277       .  A
O2           Cu9   2.010       .  S
O2           C12   1.278   1_455  A
O3           Cu9   2.005       .  S
O3           C13   1.276       .  A
O4           Cu9   1.989       .  S
O4           C14   1.277   1_455  A
O5          Cu10   2.023       .  S
O5           C14   1.279       .  A
O6          Cu10   2.009       .  S
O6           C13   1.278   1_655  A
O7          Cu10   2.006       .  S
O7           C12   1.276       .  A
O8          Cu10   2.006       .  S
O8           C11   1.277   1_655  A
Cu9         Cu10   2.375   1_455  S
C11         C649   1.469       .  S
C12         C625   1.474       .  S
C13         C664   1.468       .  S
C14         C640   1.492       .  S
O15         Cu23   2.010   1_556  S
O15          C25   1.277       .  A
O16         Cu23   2.002       .  S
O16          C26   1.277       .  A
O17         Cu23   2.007       .  S
O17          C27   1.277       .  A
O18         Cu23   2.005   1_556  S
O18          C28   1.278       .  A
O19         Cu24   2.006   1_556  S
O19          C28   1.277       .  A
O20         Cu24   2.001       .  S
O20          C27   1.277       .  A
O21         Cu24   2.011       .  S
O21          C26   1.279       .  A
O22         Cu24   2.003   1_556  S
O22          C25   1.279       .  A
Cu23        Cu24   2.369       .  S
C25         C613   1.489       .  S
C26         C577   1.492       .  S
C27         C604   1.471       .  S
C28         C589   1.483       .  S
O29         Cu37   2.007       .  S
O29          C39   1.277       .  A
O30         Cu37   1.995   1_554  S
O30          C40   1.277   1_655  A
O31         Cu37   2.014   1_554  S
O31          C41   1.278       .  A
O32         Cu37   2.007       .  S
O32          C42   1.277   1_655  A
O33         Cu38   2.017       .  S
O33          C42   1.278       .  A
O34         Cu38   2.004   1_554  S
O34          C41   1.276   1_455  A
O35         Cu38   2.020   1_554  S
O35          C40   1.279       .  A
O36         Cu38   2.008       .  S
O36          C39   1.278   1_455  A
Cu37        Cu38   2.377   1_655  S
C39         C565   1.471       .  S
C40         C541   1.483       .  S
C41         C529   1.471       .  S
C42         C553   1.472       .  S
N43          N44   1.321       .  A
N43          C47   1.349       .  A
N43         Cu51   2.091       .  S
N44          C45   1.339       .  A
N44         Cu50   2.063       .  S
C45          C46   1.386       .  A
C45          H48   1.078       .  S
C46         C517   1.495       .  S
C46          C47   1.394       .  A
C47          H49   1.081       .  S
Cu50         N53   2.063       .  S
Cu51         N61   2.091       .  S
Cu52         N54   2.063       .  S
Cu52         N60   2.064       .  S
N53          N54   1.319       .  A
N53          C57   1.344       .  A
N54          C55   1.344       .  A
C55          C56   1.385       .  A
C55          H58   1.082       .  S
C56          C91   1.485       .  S
C56          C57   1.384       .  A
C57          H59   1.082       .  S
N60          N61   1.323       .  A
N60          C64   1.339       .  A
N61          C62   1.350       .  A
C62          C63   1.390       .  A
C62          H65   1.082       .  S
C63         C628   1.486       .  S
C63          C64   1.382       .  A
C64          H66   1.081       .  S
N67          N68   1.324       .  A
N67          C71   1.347       .  A
N67         Cu75   2.077       .  S
N68          C69   1.343       .  A
N68         Cu74   2.069       .  S
C69          C70   1.378       .  A
C69          H72   1.082       .  S
C70         C661   1.470       .  S
C70          C71   1.381       .  A
C71          H73   1.082       .  S
Cu74         N77   2.068       .  S
Cu75         N85   2.077       .  S
Cu76         N78   2.064       .  S
Cu76         N84   2.064       .  S
N77          N78   1.320       .  A
N77          C81   1.344       .  A
N78          C79   1.344       .  A
C79          C80   1.383       .  A
C79          H82   1.082       .  S
C80          C94   1.485       .  S
C80          C81   1.384       .  A
C81          H83   1.082       .  S
N84          N85   1.322       .  A
N84          C88   1.341       .  A
N85          C86   1.347       .  A
C86          C87   1.387       .  A
C86          H89   1.081       .  S
C87         C505   1.482       .  S
C87          C88   1.382       .  A
C88          H90   1.082       .  S
C91          C92   1.417   1_545  A
C91          C96   1.417   1_655  A
C92         C110   1.488       .  S
C92          C93   1.417       .  A
C93         C182   1.489       .  S
C93          C94   1.417   1_655  A
C94          C95   1.418   1_565  A
C95         C158   1.488       .  S
C95          C96   1.416       .  A
C96         C134   1.488       .  S
N97          N98   1.322       .  A
N97         C101   1.348       .  A
N97        Cu105   2.080       .  S
N98          C99   1.340       .  A
N98        Cu104   2.064       .  S
C99         C100   1.383       .  A
C99         H102   1.081       .  S
C100        C601   1.486       .  S
C100        C101   1.388       .  A
C101        H103   1.082       .  S
Cu104       N107   2.063       .  S
Cu105       N115   2.081       .  S
Cu106       N108   2.067       .  S
Cu106       N114   2.068       .  S
N107        N108   1.319       .  A
N107        C111   1.343       .  A
N108        C109   1.344       .  A
C109        C110   1.386       .  A
C109        H112   1.082       .  S
C110        C111   1.385       .  A
C111        H113   1.082       .  S
N114        N115   1.323       .  A
N114        C118   1.341       .  A
N115        C116   1.348       .  A
C116        C117   1.385       .  A
C116        H119   1.082       .  S
C117        C496   1.479       .  S
C117        C118   1.381       .  A
C118        H120   1.082       .  S
N121        N122   1.322       .  A
N121        C125   1.350       .  A
N121       Cu129   2.093       .  S
N122        C123   1.338       .  A
N122       Cu128   2.063       .  S
C123        C124   1.384       .  A
C123        H126   1.079       .  S
C124        C484   1.494       .  S
C124        C125   1.393       .  A
C125        H127   1.082       .  S
Cu128       N131   2.062       .  S
Cu129       N139   2.093       .  S
Cu130       N132   2.064       .  S
Cu130       N138   2.064       .  S
N131        N132   1.318       .  A
N131        C135   1.345       .  A
N132        C133   1.344       .  A
C133        C134   1.386       .  A
C133        H136   1.082       .  S
C134        C135   1.385       .  A
C135        H137   1.082       .  S
N138        N139   1.322       .  A
N138        C142   1.338       .  A
N139        C140   1.350       .  A
C140        C141   1.393       .  A
C140        H143   1.082       .  S
C141        C544   1.495       .  S
C141        C142   1.385       .  A
C142        H144   1.079       .  S
N145        N146   1.322       .  A
N145        C149   1.348       .  A
N145       Cu153   2.080       .  S
N146        C147   1.340       .  A
N146       Cu152   2.068       .  S
C147        C148   1.384       .  A
C147        H150   1.082       .  S
C148        C580   1.486       .  S
C148        C149   1.389       .  A
C149        H151   1.081       .  S
Cu152       N155   2.067       .  S
Cu153       N163   2.080       .  S
Cu154       N156   2.068       .  S
Cu154       N162   2.069       .  S
N155        N156   1.320       .  A
N155        C159   1.345       .  A
N156        C157   1.344       .  A
C157        C158   1.385       .  A
C157        H160   1.082       .  S
C158        C159   1.385       .  A
C159        H161   1.082       .  S
N162        N163   1.321       .  A
N162        C166   1.340       .  A
N163        C164   1.347       .  A
C164        C165   1.390       .  A
C164        H167   1.080       .  S
C165        C469   1.491       .  S
C165        C166   1.386       .  A
C166        H168   1.082       .  S
N169        N170   1.323       .  A
N169        C173   1.349       .  A
N169       Cu177   2.086       .  S
N170        C171   1.342       .  A
N170       Cu176   2.070       .  S
C171        C172   1.382       .  A
C171        H174   1.082       .  S
C172        C532   1.482       .  S
C172        C173   1.387       .  A
C173        H175   1.082       .  S
Cu176       N179   2.069       .  S
Cu177       N187   2.087       .  S
Cu178       N180   2.070       .  S
Cu178       N186   2.071       .  S
N179        N180   1.320       .  A
N179        C183   1.344       .  A
N180        C181   1.345       .  A
C181        C182   1.385       .  A
C181        H184   1.082       .  S
C182        C183   1.385       .  A
C183        H185   1.082       .  S
N186        N187   1.324       .  A
N186        C190   1.343       .  A
N187        C188   1.349       .  A
C188        C189   1.384       .  A
C188        H191   1.082       .  S
C189        C457   1.475       .  S
C189        C190   1.379       .  A
C190        H192   1.082       .  S
N193        N194   1.323       .  A
N193        C197   1.348       .  A
N193       Cu201   2.084       .  S
N194        C195   1.340       .  A
N194       Cu200   2.065       .  S
C195        C196   1.382       .  A
C195        H198   1.081       .  S
C196        C637   1.484       .  S
C196        C197   1.387       .  A
C197        H199   1.082       .  S
Cu200       N203   2.064       .  S
Cu201       N211   2.084       .  S
Cu202       N204   2.063       .  S
Cu202       N210   2.064       .  S
N203        N204   1.319       .  A
N203        C207   1.344       .  A
N204        C205   1.343       .  A
C205        C206   1.384       .  A
C205        H208   1.082       .  S
C206        C241   1.486       .  S
C206        C207   1.384       .  A
C207        H209   1.082       .  S
N210        N211   1.320       .  A
N210        C214   1.339       .  A
N211        C212   1.347       .  A
C212        C213   1.394       .  A
C212        H215   1.078       .  S
C213        C445   1.498       .  S
C213        C214   1.388       .  A
C214        H216   1.081       .  S
N217        N218   1.322       .  A
N217        C221   1.348       .  A
N217       Cu225   2.083       .  S
N218        C219   1.339       .  A
N218       Cu224   2.060       .  S
C219        C220   1.381       .  A
C219        H222   1.082       .  S
C220        C652   1.482       .  S
C220        C221   1.388       .  A
C221        H223   1.082       .  S
Cu224       N227   2.060       .  S
Cu225       N235   2.083       .  S
Cu226       N228   2.071       .  S
Cu226       N234   2.072       .  S
N227        N228   1.319       .  A
N227        C231   1.343       .  A
N228        C229   1.345       .  A
C229        C230   1.387       .  A
C229        H232   1.082       .  S
C230        C244   1.488       .  S
C230        C231   1.384       .  A
C231        H233   1.082       .  S
N234        N235   1.324       .  A
N234        C238   1.342       .  A
N235        C236   1.348       .  A
C236        C237   1.383       .  A
C236        H239   1.082       .  S
C237        C433   1.474       .  S
C237        C238   1.379       .  A
C238        H240   1.082       .  S
C241        C242   1.417   1_545  A
C241        C246   1.416   1_655  A
C242        C308   1.484       .  S
C242        C243   1.416       .  A
C243        C332   1.491       .  S
C243        C244   1.419   1_655  A
C244        C245   1.419   1_565  A
C245        C260   1.486       .  S
C245        C246   1.417       .  A
C246        C284   1.489       .  S
N247        N248   1.322       .  A
N247        C251   1.348       .  A
N247       Cu255   2.081       .  S
N248        C249   1.340       .  A
N248       Cu254   2.062       .  S
C249        C250   1.383       .  A
C249        H252   1.081       .  S
C250        C424   1.485       .  S
C250        C251   1.388       .  A
C251        H253   1.082       .  S
Cu254       N257   2.062       .  S
Cu255       N265   2.081       .  S
Cu256       N258   2.066       .  S
Cu256       N264   2.067       .  S
N257        N258   1.319       .  A
N257        C261   1.343       .  A
N258        C259   1.344       .  A
C259        C260   1.385       .  A
C259        H262   1.082       .  S
C260        C261   1.384       .  A
C261        H263   1.082       .  S
N264        N265   1.324       .  A
N264        C268   1.341       .  A
N265        C266   1.348       .  A
C266        C267   1.385       .  A
C266        H269   1.082       .  S
C267        C592   1.476       .  S
C267        C268   1.379       .  A
C268        H270   1.082       .  S
N271        N272   1.323       .  A
N271        C275   1.348       .  A
N271       Cu279   2.084       .  S
N272        C273   1.343       .  A
N272       Cu278   2.072       .  S
C273        C274   1.383       .  A
C273        H276   1.082       .  S
C274        C409   1.485       .  S
C274        C275   1.388       .  A
C275        H277   1.082       .  S
Cu278       N281   2.071       .  S
Cu279       N289   2.084       .  S
Cu280       N282   2.073       .  S
Cu280       N288   2.073       .  S
N281        N282   1.321       .  A
N281        C285   1.345       .  A
N282        C283   1.345       .  A
C283        C284   1.385       .  A
C283        H286   1.082       .  S
C284        C285   1.385       .  A
C285        H287   1.082       .  S
N288        N289   1.323       .  A
N288        C292   1.343       .  A
N289        C290   1.348       .  A
C290        C291   1.386       .  A
C290        H293   1.082       .  S
C291        C556   1.480       .  S
C291        C292   1.382       .  A
C292        H294   1.082       .  S
N295        N296   1.324       .  A
N295        C299   1.349       .  A
N295       Cu303   2.087       .  S
N296        C297   1.341       .  A
N296       Cu302   2.065       .  S
C297        C298   1.377       .  A
C297        H300   1.082       .  S
C298        C397   1.473       .  S
C298        C299   1.384       .  A
C299        H301   1.082       .  S
Cu302       N305   2.064       .  S
Cu303       N313   2.087       .  S
Cu304       N306   2.061       .  S
Cu304       N312   2.061       .  S
N305        N306   1.319       .  A
N305        C309   1.344       .  A
N306        C307   1.343       .  A
C307        C308   1.383       .  A
C307        H310   1.082       .  S
C308        C309   1.385       .  A
C309        H311   1.082       .  S
N312        N313   1.320       .  A
N312        C316   1.339       .  A
N313        C314   1.348       .  A
C314        C315   1.394       .  A
C314        H317   1.081       .  S
C315        C616   1.496       .  S
C315        C316   1.386       .  A
C316        H318   1.078       .  S
N319        N320   1.322       .  A
N319        C323   1.348       .  A
N319       Cu327   2.081       .  S
N320        C321   1.341       .  A
N320       Cu326   2.066       .  S
C321        C322   1.383       .  A
C321        H324   1.081       .  S
C322        C568   1.484       .  S
C322        C323   1.387       .  A
C323        H325   1.082       .  S
Cu326       N329   2.066       .  S
Cu327       N337   2.081       .  S
Cu328       N330   2.076       .  S
Cu328       N336   2.077       .  S
N329        N330   1.320       .  A
N329        C333   1.344       .  A
N330        C331   1.346       .  A
C331        C332   1.387       .  A
C331        H334   1.082       .  S
C332        C333   1.385       .  A
C333        H335   1.082       .  S
N336        N337   1.325       .  A
N336        C340   1.344       .  A
N337        C338   1.348       .  A
C338        C339   1.382       .  A
C338        H341   1.082       .  S
C339        C385   1.472       .  S
C339        C340   1.379       .  A
C340        H342   1.082       .  S
O343       Cu351   2.007       .  S
O343        C353   1.277       .  A
O344       Cu351   2.000       .  S
O344        C354   1.277   1_565  A
O345       Cu351   2.008       .  S
O345        C355   1.277       .  A
O346       Cu351   2.007       .  S
O346        C356   1.278   1_565  A
O347       Cu352   2.006       .  S
O347        C356   1.276       .  A
O348       Cu352   2.004       .  S
O348        C355   1.279   1_545  A
O349       Cu352   2.014       .  S
O349        C354   1.278       .  A
O350       Cu352   2.007       .  S
O350        C353   1.278   1_545  A
Cu351      Cu352   2.374   1_565  S
C353        C400   1.477       .  S
C354        C472   1.477       .  S
C355        C493   1.487       .  S
C356        C421   1.471       .  S
O357       Cu365   2.004       .  S
O357        C367   1.277       .  A
O358       Cu365   2.004   1_554  S
O358        C368   1.278   1_545  A
O359       Cu365   2.015   1_554  S
O359        C369   1.278       .  A
O360       Cu365   2.011       .  S
O360        C370   1.278   1_545  A
O361       Cu366   2.004   1_556  S
O361        C370   1.277       .  A
O362       Cu366   1.998       .  S
O362        C369   1.278   1_565  A
O363       Cu366   2.005       .  S
O363        C368   1.278       .  A
O364       Cu366   2.009   1_556  S
O364        C367   1.278   1_565  A
Cu365      Cu366   2.370   1_546  S
C367        C448   1.481       .  S
C368        C508   1.488       .  S
C369        C520   1.489       .  S
C370        C436   1.478       .  S
O371       Cu379   1.997       .  S
O371        C381   1.278       .  A
O372       Cu379   2.006       .  S
O372        C382   1.277       .  A
O373       Cu379   2.011       .  S
O373        C383   1.278       .  A
O374       Cu379   2.006       .  S
O374        C384   1.276       .  A
O375       Cu380   2.015       .  S
O375        C384   1.278       .  A
O376       Cu380   2.010       .  S
O376        C383   1.277       .  A
O377       Cu380   2.012       .  S
O377        C382   1.278       .  A
O378       Cu380   2.018       .  S
O378        C381   1.278       .  A
Cu379      Cu380   2.375       .  S
C381        C481   1.490       .  S
C382        C388   1.474       .  S
C383        C412   1.473       .  S
C384        C460   1.470       .  S
C385        C386   1.401       .  A
C385        C390   1.409       .  A
C386        C387   1.402       .  A
C386        H391   1.085       .  S
C387        C388   1.412       .  A
C387        C394   1.444       .  S
C388        C389   1.403       .  A
C389        C390   1.400       .  A
C389        H392   1.085       .  S
C390        C393   1.444       .  S
C393        N395   1.157       .  T
C394        N396   1.157       .  T
C397        C398   1.402       .  A
C397        C402   1.410       .  A
C398        C399   1.402       .  A
C398        H403   1.085       .  S
C399        C400   1.413       .  A
C399        C406   1.443       .  S
C400        C401   1.402       .  A
C401        C402   1.398       .  A
C401        H404   1.083   1_565  S
C402        C405   1.444       .  S
C405        N407   1.157   1_565  T
C406        N408   1.157       .  T
C409        C410   1.405       .  A
C409        C414   1.415       .  A
C410        C411   1.399       .  A
C410        H415   1.085       .  S
C411        C412   1.408       .  A
C411        C418   1.444       .  S
C412        C413   1.402       .  A
C413        C414   1.404       .  A
C413        H416   1.085       .  S
C414        C417   1.443       .  S
C417        N419   1.157       .  T
C418        N420   1.157       .  T
C421        C422   1.398       .  A
C421        C426   1.409       .  A
C422        C423   1.397       .  A
C422        H427   1.084       .  S
C423        C424   1.416       .  A
C423        C430   1.444       .  S
C424        C425   1.407       .  A
C425        C426   1.403       .  A
C425        H428   1.084       .  S
C426        C429   1.443       .  S
C429        N431   1.157       .  T
C430        N432   1.157       .  T
C433        C434   1.402       .  A
C433        C438   1.410       .  A
C434        C435   1.402       .  A
C434        H439   1.085       .  S
C435        C436   1.414       .  A
C435        C442   1.444       .  S
C436        C437   1.403       .  A
C437        C438   1.399       .  A
C437        H440   1.085   1_565  S
C438        C441   1.444       .  S
C441        N443   1.157   1_565  T
C442        N444   1.157       .  T
C445        C446   1.410       .  A
C445        C450   1.419       .  A
C446        C447   1.398       .  A
C446        H451   1.082       .  S
C447        C448   1.409       .  A
C447        C454   1.445       .  S
C448        C449   1.403       .  A
C449        C450   1.403       .  A
C449        H452   1.085       .  S
C450        C453   1.442       .  S
C453        N455   1.158       .  T
C454        N456   1.157   1_545  T
C457        C458   1.403       .  A
C457        C462   1.410       .  A
C458        C459   1.403       .  A
C458        H463   1.084       .  S
C459        C460   1.410       .  A
C459        C466   1.445       .  S
C460        C461   1.400       .  A
C461        C462   1.400       .  A
C461        H464   1.084       .  S
C462        C465   1.444       .  S
C465        N467   1.157       .  T
C466        N468   1.157       .  T
C469        C470   1.407       .  A
C469        C474   1.417       .  A
C470        C471   1.397       .  A
C470        H475   1.083       .  S
C471        C472   1.410       .  A
C471        C478   1.445       .  S
C472        C473   1.403       .  A
C473        C474   1.404       .  A
C473        H476   1.085       .  S
C474        C477   1.443       .  S
C477        N479   1.157       .  T
C478        N480   1.157   1_545  T
C481        C482   1.403       .  A
C481        C486   1.416       .  A
C482        C483   1.396       .  A
C482        H487   1.085       .  S
C483        C484   1.418       .  A
C483        C490   1.444       .  S
C484        C485   1.408       .  A
C485        C486   1.405       .  A
C485        H488   1.084       .  S
C486        C489   1.444       .  S
C489        N491   1.157       .  T
C490        N492   1.158       .  T
C493        C494   1.406       .  A
C493        C498   1.418       .  A
C494        C495   1.397       .  A
C494        H499   1.085   1_565  S
C495        C496   1.411       .  A
C495        C502   1.445   1_565  S
C496        C497   1.403       .  A
C497        C498   1.403       .  A
C497        H500   1.085       .  S
C498        C501   1.444       .  S
C501        N503   1.157       .  T
C502        N504   1.157       .  T
C505        C506   1.403       .  A
C505        C510   1.412       .  A
C506        C507   1.398       .  A
C506        H511   1.085       .  S
C507        C508   1.417       .  A
C507        C514   1.445   1_565  S
C508        C509   1.408       .  A
C509        C510   1.402       .  A
C509        H512   1.084       .  S
C510        C513   1.444       .  S
C513        N515   1.157       .  T
C514        N516   1.157       .  T
C517        C518   1.408       .  A
C517        C522   1.419       .  A
C518        C519   1.405       .  A
C518        H523   1.083       .  S
C519        C520   1.415       .  A
C519        C526   1.444       .  S
C520        C521   1.403       .  A
C521        C522   1.397       .  A
C521        H524   1.085   1_545  S
C522        C525   1.444       .  S
C525        N527   1.158   1_545  T
C526        N528   1.157       .  T
C529        C530   1.399       .  A
C529        C534   1.409       .  A
C530        C531   1.399       .  A
C530        H535   1.085       .  S
C531        C532   1.414       .  A
C531        C538   1.444       .  S
C532        C533   1.406       .  A
C533        C534   1.404       .  A
C533        H536   1.084       .  S
C534        C537   1.444       .  S
C537        N539   1.157       .  T
C538        N540   1.157       .  T
C541        C542   1.400       .  A
C541        C546   1.412       .  A
C542        C543   1.395       .  A
C542        H547   1.085       .  S
C543        C544   1.419       .  A
C543        C550   1.444       .  S
C544        C545   1.409       .  A
C545        C546   1.406       .  A
C545        H548   1.084       .  S
C546        C549   1.444       .  S
C549        N551   1.157       .  T
C550        N552   1.158       .  T
C553        C554   1.402       .  A
C553        C558   1.408       .  A
C554        C555   1.404       .  A
C554        H559   1.085       .  S
C555        C556   1.413       .  A
C555        C562   1.443       .  S
C556        C557   1.403       .  A
C557        C558   1.398       .  A
C557        H560   1.085       .  S
C558        C561   1.442       .  S
C561        N563   1.157       .  T
C562        N564   1.157       .  T
C565        C566   1.399       .  A
C565        C570   1.410       .  A
C566        C567   1.398       .  A
C566        H571   1.085       .  S
C567        C568   1.415       .  A
C567        C574   1.444       .  S
C568        C569   1.406       .  A
C569        C570   1.403       .  A
C569        H572   1.084       .  S
C570        C573   1.444       .  S
C573        N575   1.157       .  T
C574        N576   1.157       .  T
C577        C578   1.409       .  A
C577        C582   1.418       .  A
C578        C579   1.403       .  A
C578        H583   1.084       .  S
C579        C580   1.413       .  A
C579        C586   1.444       .  S
C580        C581   1.403       .  A
C581        C582   1.397       .  A
C581        H584   1.085       .  S
C582        C585   1.445       .  S
C585        N587   1.157       .  T
C586        N588   1.157       .  T
C589        C590   1.407       .  A
C589        C594   1.415       .  A
C590        C591   1.402       .  A
C590        H595   1.085       .  S
C591        C592   1.410       .  A
C591        C598   1.444       .  S
C592        C593   1.402       .  A
C593        C594   1.398       .  A
C593        H596   1.085       .  S
C594        C597   1.445       .  S
C597        N599   1.157       .  T
C598        N600   1.157       .  T
C601        C602   1.407       .  A
C601        C606   1.417       .  A
C602        C603   1.403       .  A
C602        H607   1.084       .  S
C603        C604   1.409       .  A
C603        C610   1.445       .  S
C604        C605   1.399       .  A
C605        C606   1.397       .  A
C605        H608   1.085       .  S
C606        C609   1.444       .  S
C609        N611   1.157       .  T
C610        N612   1.157       .  T
C613        C614   1.403       .  A
C613        C618   1.415       .  A
C614        C615   1.397       .  A
C614        H619   1.085       .  S
C615        C616   1.420       .  A
C615        C622   1.443       .  S
C616        C617   1.408       .  A
C617        C618   1.404       .  A
C617        H620   1.083       .  S
C618        C621   1.444       .  S
C621        N623   1.157       .  T
C622        N624   1.158       .  T
C625        C626   1.399       .  A
C625        C630   1.411       .  A
C626        C627   1.397       .  A
C626        H631   1.085       .  S
C627        C628   1.416       .  A
C627        C634   1.444       .  S
C628        C629   1.407       .  A
C629        C630   1.404       .  A
C629        H632   1.084       .  S
C630        C633   1.444       .  S
C633        N635   1.157       .  T
C634        N636   1.157       .  T
C637        C638   1.404       .  A
C637        C642   1.412       .  A
C638        C639   1.405       .  A
C638        H643   1.085       .  S
C639        C640   1.418       .  A
C639        C646   1.444       .  S
C640        C641   1.407       .  A
C641        C642   1.395       .  A
C641        H644   1.085   1_655  S
C642        C645   1.445   1_655  S
C645        N647   1.157       .  T
C646        N648   1.157       .  T
C649        C650   1.398       .  A
C649        C654   1.409       .  A
C650        C651   1.397       .  A
C650        H655   1.084       .  S
C651        C652   1.415       .  A
C651        C658   1.444       .  S
C652        C653   1.406       .  A
C653        C654   1.403       .  A
C653        H656   1.084       .  S
C654        C657   1.445       .  S
C657        N659   1.157       .  T
C658        N660   1.157       .  T
C661        C662   1.401       .  A
C661        C666   1.409       .  A
C662        C663   1.399       .  A
C662        H667   1.085       .  S
C663        C664   1.409       .  A
C663        C670   1.443       .  S
C664        C665   1.401       .  A
C665        C666   1.400       .  A
C665        H668   1.084       .  S
C666        C669   1.443       .  S
C669        N671   1.157       .  T
C670        N672   1.157       .  T
