geometry optimzed in LAMMPS
_audit_creation_date              2020-11-30 
_audit_creation_method            'lammps2cif' 
_symmetry_space_group_name_H-M    'P1' 
_symmetry_Int_Tables_number       1 
_symmetry_cell_setting            triclinic 
loop_ 
_symmetry_equiv_pos_as_xyz 
  x,y,z 
_cell_length_a                    23.00283627 
_cell_length_b                    23.176509102303882 
_cell_length_c                    26.64144233415592 
_cell_angle_alpha                 89.99179454335068 
_cell_angle_beta                  90.00700015872613 
_cell_angle_gamma                 121.54440817327183 
loop_ 
_atom_site_label 
_atom_site_type_symbol 
_atom_site_fract_x 
_atom_site_fract_y 
_atom_site_fract_z 
_atom_site_charge 
C1          C  0.17496917  0.05842017  0.34321814     0.03700
C2          C  0.17947646  0.12303338  0.34443377     0.03700
C3          C  0.18817967  0.15533850  0.39012107    -0.16800
C4          C  0.19190007  0.12774902  0.43624847     0.03700
C5          C  0.18576713  0.06198828  0.43583837     0.03700
C6          C  0.17589230  0.02912953  0.38896360    -0.16800
H7          H  0.17211575  0.48042779  0.38784110     0.05700
H8          H  0.19008685  0.20311191  0.38958756     0.05700
C9          C  0.17225209  0.05328094  0.11925083     0.03700
C10         C  0.17769327  0.11822753  0.12122470     0.03100
C11         C  0.18558898  0.15202384  0.07579696    -0.16800
C12         C  0.18985678  0.12583540  0.02863304     0.03700
C13         C  0.18316479  0.05988364  0.02762181     0.03700
C14         C  0.17190459  0.02528734  0.07318406    -0.16800
H15         H  0.16574966  0.47543356  0.07320313     0.05700
H16         H  0.18896994  0.20040415  0.07733044     0.05700
O17         O  0.02926027  0.34099927  0.28004389    -0.70400
O18         O  0.16294637  0.47267472  0.18499111    -0.70600
O19         O  0.15132340  0.45866065  0.29082117    -0.70400
O20         O  0.04341497  0.35198148  0.17422664    -0.70400
O21         O  0.47579571  0.38127152  0.20060467    -0.70400
O22         O  0.12312290  0.02648960  0.26390226    -0.70400
O23         O  0.08024172  0.98889390  0.16928241    -0.70400
O24         O  0.51332994  0.42345677  0.29526797    -0.70500
V25         V  0.09787122  0.40489278  0.23249598     1.35200
V26         V  0.04848493  0.45482318  0.23228368     1.35200
C27         C  0.49937765  0.36528782  0.30552470     0.78900
C28         C  0.13887742  0.00268611  0.15940681     0.78900
C29         C  0.15294386  0.01415722  0.29684110     0.78800
C30         C  0.48783437  0.35095859  0.16797278     0.78800
C31         C  0.44323518  0.32876875  0.12157879     0.03700
C32         C  0.37788625  0.32367940  0.12026874     0.03700
C33         C  0.34508632  0.31436998  0.07459200    -0.16800
C34         C  0.37243613  0.30955625  0.02860027     0.03700
C35         C  0.43880512  0.31577376  0.02916182     0.03700
C36         C  0.47272411  0.32762875  0.07588624    -0.16800
H37         H  0.02205013  0.33197453  0.07701953     0.05700
H38         H  0.29682316  0.31221770  0.07510630     0.05700
C39         C  0.38260951  0.32555064  0.34362246     0.03700
C40         C  0.44866331  0.33245012  0.34587869     0.03700
C41         C  0.47688490  0.33326737  0.39207737    -0.16800
C42         C  0.44065715  0.31915297  0.43722821     0.03700
C43         C  0.37389767  0.31184886  0.43606806     0.03700
C44         C  0.34795795  0.31679522  0.38891393    -0.16800
H45         H  0.29890758  0.31277237  0.38721739     0.05700
H46         H  0.02773042  0.34083674  0.39234131     0.05700
C47         C  0.38774091  0.04925796  0.12188031     0.03700
C48         C  0.45327306  0.11145387  0.11953602     0.03700
C49         C  0.47936048  0.14201952  0.07351070    -0.16800
C50         C  0.44175289  0.11876894  0.02891723     0.03700
C51         C  0.37648670  0.05506463  0.02998364     0.03700
C52         C  0.35278589  0.02154902  0.07673864    -0.16800
H53         H  0.30385635  0.47444342  0.07844258     0.05700
H54         H  0.02939898  0.18826963  0.07309922     0.05700
C55         C  0.38663542  0.04630746  0.34508020     0.03700
C56         C  0.44987816  0.11086323  0.34279347     0.03700
C57         C  0.47792232  0.14538225  0.38791349    -0.16800
C58         C  0.44378629  0.12241777  0.43455620     0.03700
C59         C  0.37959073  0.05760799  0.43588074     0.03700
C60         C  0.35543722  0.02074971  0.39108264    -0.16800
H61         H  0.30858186  0.47141528  0.39136564     0.05700
H62         H  0.02575098  0.19374477  0.38625936     0.05700
O63         O  0.03486205  0.18709896  0.18459866    -0.70400
O64         O  0.17016600  0.19548473  0.27910140    -0.70600
O65         O  0.15671610  0.19592839  0.17307464    -0.70400
O66         O  0.04963512  0.19161226  0.29003481    -0.70400
O67         O  0.48124569  0.09192912  0.26351434    -0.70400
O68         O  0.13112414  0.10068831  0.20226994    -0.70400
O69         O  0.08615213  0.09545121  0.29681344    -0.70400
O70         O  0.51991605  0.08843862  0.16941377    -0.70500
V71         V  0.10412196  0.19522436  0.23179058     1.35200
V72         V  0.05493608  0.09438250  0.23287462     1.35200
C73         C  0.50499500  0.13159640  0.15931469     0.78900
C74         C  0.14580871  0.14107335  0.30546932     0.78900
C75         C  0.15889871  0.14229176  0.16794380     0.78800
C76         C  0.49370907  0.13497875  0.29617535     0.78800
O77         O  0.40633351  0.01919566  0.20167884    -0.70400
O78         O  0.39980838  0.37108172  0.26234388    -0.70600
O79         O  0.40455782  0.41596523  0.16793955    -0.70400
O80         O  0.41005871  0.98014582  0.29565423    -0.70400
O81         O  0.31071028  0.46494977  0.28007048    -0.70400
O82         O  0.30424779  0.33163142  0.18559248    -0.70400
O83         O  0.30347186  0.34471133  0.29155632    -0.70400
O84         O  0.30655375  0.45033339  0.17461631    -0.70500
V85         V  0.40504741  0.44636263  0.23199646     1.35200
V86         V  0.30345730  0.39656333  0.23289216     1.35200
C87         C  0.36319423  0.00616582  0.16866065     0.78900
C88         C  0.35793335  0.34328177  0.29671657     0.78900
C89         C  0.35913464  0.35653950  0.15923077     0.78800
C90         C  0.36641931  0.99477858  0.30550234     0.78800
C91         C  0.11545250  0.17325596  0.84362995     0.03700
C92         C  0.04941288  0.16639531  0.84587110     0.03700
C93         C  0.02120352  0.16560234  0.89206431    -0.16800
C94         C  0.05742431  0.17968730  0.93722149     0.03700
C95         C  0.12416735  0.18694862  0.93607587     0.03700
C96         C  0.15009346  0.18198502  0.88892776    -0.16800
H97         H  0.19912907  0.18597677  0.88723945     0.05700
H98         H  0.47037030  0.15806299  0.89231965     0.05700
C99         C  0.11148364  0.45249895  0.84509623     0.03700
C100        C  0.04822826  0.38795556  0.84281670     0.03700
C101        C  0.02016364  0.35346689  0.88794437    -0.16800
C102        C  0.05430555  0.37643107  0.93458619     0.03700
C103        C  0.11851686  0.44122483  0.93590384     0.03700
C104        C  0.14268137  0.47806677  0.89109676    -0.16800
H105        H  0.18952190  0.02739661  0.89138372     0.05700
H106        H  0.47232091  0.30511654  0.88629695     0.05700
C107        C  0.32311993  0.44037180  0.84316660     0.03700
C108        C  0.31859753  0.37575046  0.84439685     0.03700
C109        C  0.30985714  0.34343112  0.89008918    -0.16800
C110        C  0.30614666  0.37102854  0.93620925     0.03700
C111        C  0.31229367  0.43679392  0.93578650     0.03700
C112        C  0.32216244  0.46964883  0.88890446    -0.16800
H113        H  0.32590149  0.01833088  0.88778752     0.05700
H114        H  0.30793389  0.29564972  0.88956894     0.05700
C115        C  0.04483527  0.38736723  0.61955048     0.03700
C116        C  0.11036852  0.44956075  0.62189752     0.03700
C117        C  0.14533150  0.47726443  0.57675923    -0.16800
C118        C  0.12163621  0.44374772  0.53000735     0.03700
C119        C  0.05636065  0.38005095  0.52893256     0.03700
C120        C  0.01875253  0.35679742  0.57352471    -0.16800
H121        H  0.46871351  0.31054875  0.57311182     0.05700
H122        H  0.19423906  0.02436395  0.57848541     0.05700
O123        O  0.09824258  0.12770213  0.76236650    -0.70400
O124        O  0.09177639  0.47962087  0.70168789    -0.70600
O125        O  0.08806273  0.51865991  0.79565767    -0.70400
O126        O  0.09349348  0.08285198  0.66796069    -0.70400
O127        O  0.19381090  0.16717987  0.68561167    -0.70400
O128        O  0.18736480  0.03386175  0.78010271    -0.70400
O129        O  0.19151308  0.04848612  0.67465003    -0.70400
O130        O  0.19458832  0.15409069  0.79157834    -0.70500
V131        V  0.09301162  0.05243862  0.73201631     1.35200
V132        V  0.19460479  0.10224684  0.73291915     1.35200
C133        C  0.14012238  0.15551077  0.79673503     0.78900
C134        C  0.13491548  0.49265149  0.66867493     0.78900
C135        C  0.13170006  0.50402346  0.80551225     0.78800
C136        C  0.13892459  0.14227531  0.65924615     0.78800
C137        C  0.05484942  0.17007437  0.62157031     0.03700
C138        C  0.12018640  0.17514075  0.62027120     0.03700
C139        C  0.15298101  0.18442994  0.57459953    -0.16800
C140        C  0.12563964  0.18925282  0.52860114     0.03700
C141        C  0.05928286  0.18305994  0.52915094     0.03700
C142        C  0.02536661  0.17122268  0.57587161    -0.16800
H143        H  0.47605045  0.16689793  0.57699558     0.05700
H144        H  0.20123625  0.18656542  0.57512433     0.05700
C145        C  0.32597872  0.44558009  0.61919975     0.03700
C146        C  0.32047368  0.38060640  0.62119484     0.03700
C147        C  0.31254772  0.34679237  0.57577850    -0.16800
C148        C  0.30828232  0.37298116  0.52860794     0.03700
C149        C  0.31503234  0.43895750  0.52757711     0.03700
C150        C  0.32638120  0.47359218  0.57312317    -0.16800
H151        H  0.33257709  0.02345279  0.57313967     0.05700
H152        H  0.30912309  0.29839132  0.57732758     0.05700
O153        O  0.02231452  0.11761505  0.70061806    -0.70400
O154        O  0.37506383  0.47235160  0.76388396    -0.70600
O155        O  0.41795880  0.50994481  0.66927083    -0.70400
O156        O  0.98474772  0.07538571  0.79528043    -0.70400
O157        O  0.46878918  0.15781905  0.78002073    -0.70400
O158        O  0.33518007  0.02611686  0.68494052    -0.70400
O159        O  0.34674064  0.04011134  0.79077087    -0.70400
O160        O  0.45465900  0.14684130  0.67419566    -0.70500
V161        V  0.44964009  0.04402388  0.73228800     1.35200
V162        V  0.40020559  0.09390689  0.73245889     1.35200
C163        C  0.01025532  0.14789574  0.66796286     0.78900
C164        C  0.34519707  0.48465848  0.79679390     0.78900
C165        C  0.35932950  0.49615721  0.65936402     0.78800
C166        C  0.99868758  0.13354953  0.80551922     0.78800
O167        O  0.32793150  0.30330351  0.77908852    -0.70400
O168        O  0.46325938  0.31172069  0.68461905    -0.70600
O169        O  0.44847869  0.30719587  0.79005390    -0.70400
O170        O  0.34140914  0.30288370  0.67306767    -0.70400
O171        O  0.36696857  0.39810705  0.70226397    -0.70400
O172        O  0.01686190  0.40688227  0.76352489    -0.70400
O173        O  0.97819124  0.41037751  0.66941833    -0.70400
O174        O  0.41194289  0.40332600  0.79681386    -0.70500
V175        V  0.39399208  0.30358049  0.73179694     1.35200
V176        V  0.44316500  0.40441953  0.73287671     1.35200
C177        C  0.35228030  0.35770893  0.80545452     0.78900
C178        C  0.99311616  0.36722262  0.65932675     0.78900
C179        C  0.00440230  0.36383307  0.79619315     0.78800
C180        C  0.33922189  0.35651853  0.66792971     0.78800
C181        C  0.17582588  0.21071132  0.97820081     0.03700
C182        C  0.21231273  0.17651987  0.98623170     0.03700
C183        C  0.28388921  0.21534315  0.98082023    -0.16800
C184        C  0.32110224  0.28633919  0.98631115     0.03700
C185        C  0.28436748  0.32069759  0.97874057     0.03700
C186        C  0.21275434  0.28162343  0.98399250    -0.16800
H187        H  0.18547279  0.30654424  0.97800242     0.05700
H188        H  0.31101963  0.19029155  0.98688309     0.05700
C189        C  0.46354907  0.28376198  0.99258775     0.03700
C190        C  0.03098492  0.31911198  0.97122021     0.03700
C191        C  0.06179892  0.28137929  0.96157823    -0.16800
C192        C  0.03274703  0.21240954  0.97287585     0.03700
C193        C  0.46475885  0.17669541  0.99313782     0.03700
C194        C  0.43425101  0.21454943  0.00339832    -0.16800
H195        H  0.39484714  0.19458797  0.03147522     0.05700
H196        H  0.10129576  0.30098234  0.93356940     0.05700
C197        C  0.17573686  0.46494698  0.97306098     0.03700
C198        C  0.21308959  0.03404280  0.99026832     0.03700
C199        C  0.28342077  0.06391747  0.99862634    -0.16800
C200        C  0.31984107  0.03114045  0.99211564     0.03700
C201        C  0.28284899  0.46254135  0.97389843     0.03700
C202        C  0.21234107  0.43244368  0.96595382    -0.16800
H203        H  0.19020124  0.39044442  0.94070213     0.05700
H204        H  0.30529213  0.10595876  0.02382170     0.05700
C205        C  0.17829001  0.46767569  0.49215357     0.03700
C206        C  0.21525941  0.03626238  0.47393633     0.03700
C207        C  0.28575971  0.06636393  0.46594565    -0.16800
C208        C  0.32237422  0.03386717  0.47303684     0.03700
C209        C  0.28504378  0.46478209  0.49025880     0.03700
C210        C  0.21472500  0.43491273  0.49867829    -0.16800
H211        H  0.19289558  0.39290295  0.52389680     0.05700
H212        H  0.30786766  0.10835023  0.44068738     0.05700
C213        C  0.03333684  0.32213866  0.49313904     0.03700
C214        C  0.46534031  0.28642458  0.47288242     0.03700
C215        C  0.43628620  0.21745701  0.46157396    -0.16800
C216        C  0.46711267  0.17972853  0.47119584     0.03700
C217        C  0.03455345  0.21507722  0.49256022     0.03700
C218        C  0.06386190  0.28429148  0.50336913    -0.16800
H219        H  0.10327995  0.30424887  0.53142527     0.05700
H220        H  0.39677847  0.19785974  0.43357941     0.05700
C221        C  0.21370320  0.17809973  0.47876156     0.03700
C222        C  0.17697999  0.21247111  0.48632206     0.03700
C223        C  0.21420253  0.28347062  0.48083049    -0.16800
C224        C  0.28578152  0.32228266  0.48622256     0.03700
C225        C  0.32225105  0.28808061  0.47819283     0.03700
C226        C  0.28531944  0.21716829  0.48399579    -0.16800
H227        H  0.31259051  0.19224246  0.47800805     0.05700
H228        H  0.18709304  0.30853626  0.48689644     0.05700
C229        C  0.17508500  0.55844791  0.34319637     0.03700
C230        C  0.17961877  0.62307565  0.34441200     0.03700
C231        C  0.18829624  0.65536436  0.39010207    -0.16800
C232        C  0.19196376  0.62774738  0.43623027     0.03700
C233        C  0.18582409  0.56198486  0.43581762     0.03700
C234        C  0.17596707  0.52913670  0.38894150    -0.16800
H235        H  0.17205476  0.98042734  0.38786339     0.05700
H236        H  0.19020704  0.70313923  0.38957126     0.05700
C237        C  0.17240881  0.55334560  0.11924584     0.03700
C238        C  0.17783788  0.61828821  0.12121716     0.03100
C239        C  0.18571764  0.65207428  0.07578977    -0.16800
C240        C  0.18997137  0.62587970  0.02862597     0.03700
C241        C  0.18328918  0.55993078  0.02761514     0.03700
C242        C  0.17206837  0.52535290  0.07318147    -0.16800
H243        H  0.16557177  0.97536211  0.07320257     0.05700
H244        H  0.18908626  0.70044885  0.07732342     0.05700
O245        O  0.02922789  0.84093353  0.28006722    -0.70400
O246        O  0.16285981  0.97265875  0.18501073    -0.70600
O247        O  0.15125668  0.95865034  0.29084245    -0.70400
O248        O  0.04338731  0.85193025  0.17425070    -0.70400
O249        O  0.47570691  0.88112616  0.20065262    -0.70400
O250        O  0.12326096  0.52654831  0.26387707    -0.70400
O251        O  0.08037836  0.48898031  0.16925632    -0.70400
O252        O  0.51326230  0.92336344  0.29530245    -0.70500
V253        V  0.09782157  0.90485784  0.23252042     1.35200
V254        V  0.04837505  0.95472688  0.23231461     1.35200
C255        C  0.49932048  0.86519778  0.30554627     0.78900
C256        C  0.13900451  0.50274128  0.15939030     0.78900
C257        C  0.15305221  0.51418740  0.29681887     0.78800
C258        C  0.48778370  0.85086319  0.16800522     0.78800
C259        C  0.44321036  0.82870960  0.12160235     0.03700
C260        C  0.37787228  0.82364213  0.12028513     0.03700
C261        C  0.34510716  0.81438956  0.07460032    -0.16800
C262        C  0.37246900  0.80958768  0.02861112     0.03700
C263        C  0.43882028  0.81576733  0.02918477     0.03700
C264        C  0.47272025  0.82759716  0.07591393    -0.16800
H265        H  0.02204059  0.83193110  0.07705372     0.05700
H266        H  0.29685789  0.81226516  0.07510886     0.05700
C267        C  0.38256141  0.82549207  0.34364075     0.03700
C268        C  0.44860088  0.83235327  0.34589081     0.03700
C269        C  0.47683227  0.83318036  0.39208559    -0.16800
C270        C  0.44062426  0.81910004  0.43724098     0.03700
C271        C  0.37387689  0.81182361  0.43608696     0.03700
C272        C  0.34793371  0.81677342  0.38893586    -0.16800
H273        H  0.29889972  0.81278483  0.38724344     0.05700
H274        H  0.02767167  0.84073317  0.39234496     0.05700
C275        C  0.38782774  0.54931090  0.12188077     0.03700
C276        C  0.45338507  0.61147458  0.11952436     0.03700
C277        C  0.47947732  0.64200455  0.07349002    -0.16800
C278        C  0.44184157  0.61876767  0.02890676     0.03700
C279        C  0.37655767  0.55508279  0.02998209     0.03700
C280        C  0.35285093  0.52159711  0.07674558    -0.16800
H281        H  0.30380714  0.97437626  0.07842516     0.05700
H282        H  0.02953369  0.68823247  0.07306663     0.05700
C283        C  0.38674318  0.54633163  0.34508064     0.03700
C284        C  0.44999188  0.61088118  0.34279722     0.03700
C285        C  0.47802195  0.64539308  0.38792164    -0.16800
C286        C  0.44386275  0.62242038  0.43455691     0.03700
C287        C  0.37967210  0.55761319  0.43587608     0.03700
C288        C  0.35553507  0.52076000  0.39107839    -0.16800
H289        H  0.30848396  0.97140517  0.39137427     0.05700
H290        H  0.02585095  0.69375645  0.38627616     0.05700
O291        O  0.03497007  0.68711888  0.18459201    -0.70400
O292        O  0.17029992  0.69553625  0.27908762    -0.70600
O293        O  0.15683533  0.69597929  0.17306112    -0.70400
O294        O  0.04974962  0.69163613  0.29003219    -0.70400
O295        O  0.48137781  0.59194199  0.26352157    -0.70400
O296        O  0.13127073  0.60075290  0.20225975    -0.70400
O297        O  0.08629709  0.59550138  0.29680334    -0.70400
O298        O  0.52002597  0.58845671  0.16941257    -0.70500
V299        V  0.10423935  0.69526089  0.23178240     1.35200
V300        V  0.05507140  0.59442012  0.23286915     1.35200
C301        C  0.50510584  0.63161527  0.15930816     0.78900
C302        C  0.14595269  0.64112346  0.30545292     0.78900
C303        C  0.15903434  0.64235184  0.16793218     0.78800
C304        C  0.49383147  0.63499532  0.29617897     0.78800
O305        O  0.40641132  0.51925810  0.20168239    -0.70400
O306        O  0.39977730  0.87107349  0.26238188    -0.70600
O307        O  0.40453770  0.91591544  0.16797205    -0.70400
O308        O  0.41013619  0.48016544  0.29564164    -0.70400
O309        O  0.31061770  0.96488257  0.28007194    -0.70400
O310        O  0.30422039  0.83157574  0.18560734    -0.70400
O311        O  0.30341945  0.84465640  0.29157209    -0.70400
O312        O  0.30648458  0.95025231  0.17461274    -0.70500
V313        V  0.40499206  0.94632665  0.23201669     1.35200
V314        V  0.30339885  0.89649871  0.23289988     1.35200
C315        C  0.36327125  0.50623933  0.16866638     0.78900
C316        C  0.35789118  0.84324670  0.29674155     0.78900
C317        C  0.35911540  0.85649058  0.15925431     0.78800
C318        C  0.36651401  0.49481863  0.30549732     0.78800
C319        C  0.11556818  0.67332459  0.84363452     0.03700
C320        C  0.04954123  0.66649787  0.84586670     0.03700
C321        C  0.02131216  0.66568725  0.89205357    -0.16800
C322        C  0.05750343  0.67973507  0.93721865     0.03700
C323        C  0.12424074  0.68698238  0.93608279     0.03700
C324        C  0.15018077  0.68202062  0.88893934    -0.16800
H325        H  0.19920367  0.68598415  0.88725948     0.05700
H326        H  0.47048262  0.65815906  0.89230004     0.05700
C327        C  0.11134758  0.95247380  0.84511128     0.03700
C328        C  0.04809642  0.88792767  0.84283506     0.03700
C329        C  0.02006194  0.85343759  0.88796582    -0.16800
C330        C  0.05423679  0.87641018  0.93459673     0.03700
C331        C  0.11843294  0.94121055  0.93591026     0.03700
C332        C  0.14256510  0.97805436  0.89110527    -0.16800
H333        H  0.18964537  0.52740350  0.89138046     0.05700
H334        H  0.47222631  0.80508008  0.88632774     0.05700
C335        C  0.32298101  0.94032767  0.84316543     0.03700
C336        C  0.31845764  0.87570502  0.84439968     0.03700
C337        C  0.30977749  0.84342066  0.89009869    -0.16800
C338        C  0.30611528  0.87104440  0.93621930     0.03700
C339        C  0.31224026  0.93680047  0.93578970     0.03700
C340        C  0.32206763  0.96963040  0.88890189    -0.16800
H341        H  0.32600081  0.51835125  0.88779428     0.05700
H342        H  0.30787157  0.79564829  0.88958247     0.05700
C343        C  0.04471676  0.88731614  0.61956212     0.03700
C344        C  0.11026147  0.94949549  0.62191884     0.03700
C345        C  0.14525193  0.97720210  0.57678779    -0.16800
C346        C  0.12156565  0.94370702  0.53002919     0.03700
C347        C  0.05628892  0.88001309  0.52894883     0.03700
C348        C  0.01865203  0.85676001  0.57353041    -0.16800
H349        H  0.46860832  0.81051752  0.57310599     0.05700
H350        H  0.19431238  0.52443425  0.57844712     0.05700
O351        O  0.09834985  0.62773671  0.76238348    -0.70400
O352        O  0.09165042  0.97955631  0.70170026    -0.70600
O353        O  0.08792828  0.01862017  0.79565903    -0.70400
O354        O  0.09358263  0.58291151  0.66797381    -0.70400
O355        O  0.19390684  0.66724187  0.68560954    -0.70400
O356        O  0.18750191  0.53392043  0.78008807    -0.70400
O357        O  0.19162829  0.54856180  0.67462913    -0.70400
O358        O  0.19470692  0.65414863  0.79158021    -0.70500
V359        V  0.09312845  0.55248889  0.73202063     1.35200
V360        V  0.19472202  0.60231108  0.73291090     1.35200
C361        C  0.14023629  0.65556048  0.79674415     0.78900
C362        C  0.13479823  0.99257906  0.66869564     0.78900
C363        C  0.13156133  0.00398080  0.80552284     0.78800
C364        C  0.13901350  0.64233331  0.65925082     0.78800
C365        C  0.05493528  0.67013252  0.62157766     0.03700
C366        C  0.12026609  0.67518722  0.62026992     0.03700
C367        C  0.15302009  0.68442096  0.57458775    -0.16800
C368        C  0.12565454  0.68922242  0.52859373     0.03700
C369        C  0.05930537  0.68304282  0.52915722     0.03700
C370        C  0.02541462  0.67122768  0.57588445    -0.16800
H371        H  0.47609644  0.66689900  0.57701772     0.05700
H372        H  0.20126541  0.68653683  0.57510309     0.05700
C373        C  0.32579547  0.94549236  0.61920538     0.03700
C374        C  0.32031669  0.88052908  0.62119655     0.03700
C375        C  0.31243385  0.84673852  0.57577736    -0.16800
C376        C  0.30819017  0.87293747  0.52860579     0.03700
C377        C  0.31491412  0.93890499  0.52757821     0.03700
C378        C  0.32620386  0.97351050  0.57313137    -0.16800
H379        H  0.33277736  0.52354418  0.57312611     0.05700
H380        H  0.30903714  0.79835073  0.57732484     0.05700
O381        O  0.02246050  0.61775222  0.70064494    -0.70400
O382        O  0.37487974  0.97226977  0.76387098    -0.70600
O383        O  0.41778416  0.00984976  0.66926057    -0.70400
O384        O  0.98488147  0.57548881  0.79529384    -0.70400
O385        O  0.46889966  0.65790409  0.78002755    -0.70400
O386        O  0.33532571  0.52617245  0.68494656    -0.70400
O387        O  0.34687141  0.54015830  0.79077806    -0.70400
O388        O  0.45476330  0.64691544  0.67420728    -0.70500
V389        V  0.44980088  0.54412849  0.73230169     1.35200
V390        V  0.40032632  0.59397152  0.73246903     1.35200
C391        C  0.01037304  0.64799644  0.66797967     0.78900
C392        C  0.34504008  0.98459924  0.79678641     0.78900
C393        C  0.35915911  0.99607602  0.65936190     0.78800
C394        C  0.99881689  0.63365131  0.80552153     0.78800
O395        O  0.32778443  0.80324664  0.77909397    -0.70400
O396        O  0.46312741  0.81166955  0.68463151    -0.70600
O397        O  0.44834058  0.80715541  0.79007132    -0.70400
O398        O  0.34126729  0.80281376  0.67307137    -0.70400
O399        O  0.36681266  0.89803217  0.70226284    -0.70400
O400        O  0.01671359  0.90684268  0.76353986    -0.70400
O401        O  0.97805467  0.91032268  0.66942282    -0.70400
O402        O  0.41178950  0.90327510  0.79681118    -0.70500
V403        V  0.39385258  0.80352539  0.73180676     1.35200
V404        V  0.44301553  0.90436343  0.73287929     1.35200
C405        C  0.35212992  0.85765673  0.80545441     0.78900
C406        C  0.99298437  0.86716940  0.65933506     0.78900
C407        C  0.00425945  0.86379799  0.79621203     0.78800
C408        C  0.33906990  0.85644279  0.66793065     0.78800
C409        C  0.17588258  0.71073193  0.97821414     0.03700
C410        C  0.21239344  0.67655875  0.98622431     0.03700
C411        C  0.28396682  0.71540470  0.98079927    -0.16800
C412        C  0.32115233  0.78639671  0.98631303     0.03700
C413        C  0.28439170  0.82073691  0.97876182     0.03700
C414        C  0.21278167  0.78164110  0.98402844    -0.16800
H415        H  0.18548033  0.80654853  0.97804053     0.05700
H416        H  0.31112201  0.69037157  0.98685173     0.05700
C417        C  0.46356104  0.78374610  0.99261733     0.03700
C418        C  0.03097330  0.81910422  0.97122273     0.03700
C419        C  0.06181255  0.78139898  0.96156394    -0.16800
C420        C  0.03280449  0.71244037  0.97287301     0.03700
C421        C  0.46482548  0.67670834  0.99315084     0.03700
C422        C  0.43430770  0.71454667  0.00344651    -0.16800
H423        H  0.39493780  0.69459183  0.03155201     0.05700
H424        H  0.10128517  0.80100307  0.93353597     0.05700
C425        C  0.17566557  0.96493430  0.97305660     0.03700
C426        C  0.21317765  0.53406918  0.99024614     0.03700
C427        C  0.28351489  0.56394888  0.99857394    -0.16800
C428        C  0.31991882  0.53114995  0.99210103     0.03700
C429        C  0.28278336  0.96254096  0.97389676     0.03700
C430        C  0.21227853  0.93244161  0.96594295    -0.16800
H431        H  0.19015212  0.89044679  0.94068906     0.05700
H432        H  0.30540443  0.60602084  0.02373495     0.05700
C433        C  0.17821436  0.96765862  0.49216030     0.03700
C434        C  0.21532721  0.53626640  0.47390878     0.03700
C435        C  0.28582348  0.56636705  0.46591006    -0.16800
C436        C  0.32244523  0.53388204  0.47302044     0.03700
C437        C  0.28496016  0.96475056  0.49024386     0.03700
C438        C  0.21463501  0.93487351  0.49863590    -0.16800
H439        H  0.19279069  0.89282964  0.52381441     0.05700
H440        H  0.30791846  0.60834268  0.44064273     0.05700
C441        C  0.03329709  0.82210034  0.49316827     0.03700
C442        C  0.46531272  0.78637560  0.47289468     0.03700
C443        C  0.43629712  0.71742017  0.46156927    -0.16800
C444        C  0.46714808  0.67971575  0.47119485     0.03700
C445        C  0.03457081  0.71506967  0.49258038     0.03700
C446        C  0.06383466  0.78426843  0.50341912    -0.16800
H447        H  0.10321912  0.80421250  0.53150250     0.05700
H448        H  0.39681162  0.69782825  0.43355829     0.05700
C449        C  0.21371501  0.67806972  0.47875698     0.03700
C450        C  0.17696897  0.71242188  0.48630179     0.03700
C451        C  0.21416620  0.78341865  0.48079535    -0.16800
C452        C  0.28574034  0.82225002  0.48621598     0.03700
C453        C  0.32223557  0.78806481  0.47821117     0.03700
C454        C  0.28532562  0.71715260  0.48402002    -0.16800
H455        H  0.31261327  0.69223695  0.47803636     0.05700
H456        H  0.18703112  0.80846485  0.48684816     0.05700
C457        C  0.67496915  0.05842019  0.34321813     0.03700
C458        C  0.67947639  0.12303335  0.34443380     0.03700
C459        C  0.68817970  0.15533850  0.39012109    -0.16800
C460        C  0.69190016  0.12774904  0.43624848     0.03700
C461        C  0.68576722  0.06198829  0.43583836     0.03700
C462        C  0.67589239  0.02912956  0.38896357    -0.16800
H463        H  0.67211588  0.48042782  0.38784110     0.05700
H464        H  0.69008692  0.20311196  0.38958758     0.05700
C465        C  0.67225216  0.05328094  0.11925084     0.03700
C466        C  0.67769335  0.11822753  0.12122470     0.03100
C467        C  0.68558906  0.15202384  0.07579696    -0.16800
C468        C  0.68985683  0.12583540  0.02863305     0.03700
C469        C  0.68316486  0.05988366  0.02762183     0.03700
C470        C  0.67190467  0.02528734  0.07318407    -0.16800
H471        H  0.66574974  0.47543356  0.07320313     0.05700
H472        H  0.68897001  0.20040415  0.07733045     0.05700
O473        O  0.52926034  0.34099927  0.28004388    -0.70400
O474        O  0.66294645  0.47267473  0.18499112    -0.70600
O475        O  0.65132348  0.45866065  0.29082117    -0.70400
O476        O  0.54341501  0.35198148  0.17422663    -0.70400
O477        O  0.97579566  0.38127150  0.20060469    -0.70400
O478        O  0.62312267  0.02648957  0.26390229    -0.70400
O479        O  0.58024173  0.98889390  0.16928240    -0.70400
O480        O  0.01332988  0.42345678  0.29526798    -0.70500
V481        V  0.59787129  0.40489278  0.23249598     1.35200
V482        V  0.54848500  0.45482318  0.23228368     1.35200
C483        C  0.99937759  0.36528783  0.30552471     0.78900
C484        C  0.63887745  0.00268611  0.15940682     0.78900
C485        C  0.65294373  0.01415724  0.29684109     0.78800
C486        C  0.98783432  0.35095859  0.16797278     0.78800
C487        C  0.94323519  0.32876875  0.12157878     0.03700
C488        C  0.87788627  0.32367940  0.12026873     0.03700
C489        C  0.84508633  0.31436997  0.07459200    -0.16800
C490        C  0.87243612  0.30955623  0.02860027     0.03700
C491        C  0.93880513  0.31577378  0.02916180     0.03700
C492        C  0.97272407  0.32762875  0.07588623    -0.16800
H493        H  0.52204998  0.33197451  0.07701955     0.05700
H494        H  0.79682319  0.31221770  0.07510632     0.05700
C495        C  0.88260943  0.32555063  0.34362246     0.03700
C496        C  0.94866323  0.33245013  0.34587868     0.03700
C497        C  0.97688488  0.33326736  0.39207737    -0.16800
C498        C  0.94065710  0.31915296  0.43722822     0.03700
C499        C  0.87389763  0.31184887  0.43606808     0.03700
C500        C  0.84795788  0.31679521  0.38891395    -0.16800
H501        H  0.79890756  0.31277236  0.38721742     0.05700
H502        H  0.52773070  0.34083680  0.39234133     0.05700
C503        C  0.88774094  0.04925797  0.12188031     0.03700
C504        C  0.95327306  0.11145392  0.11953602     0.03700
C505        C  0.97936048  0.14201949  0.07351069    -0.16800
C506        C  0.94175290  0.11876895  0.02891722     0.03700
C507        C  0.87648673  0.05506460  0.02998363     0.03700
C508        C  0.85278597  0.02154906  0.07673863    -0.16800
H509        H  0.80385644  0.47444341  0.07844260     0.05700
H510        H  0.52939885  0.18826962  0.07309927     0.05700
C511        C  0.88663540  0.04630749  0.34508020     0.03700
C512        C  0.94987820  0.11086321  0.34279348     0.03700
C513        C  0.97792241  0.14538226  0.38791349    -0.16800
C514        C  0.94378636  0.12241778  0.43455620     0.03700
C515        C  0.87959081  0.05760799  0.43588075     0.03700
C516        C  0.85543728  0.02074971  0.39108266    -0.16800
H517        H  0.80858193  0.47141521  0.39136567     0.05700
H518        H  0.52575097  0.19374481  0.38625937     0.05700
O519        O  0.53486209  0.18709896  0.18459866    -0.70400
O520        O  0.67016607  0.19548473  0.27910139    -0.70600
O521        O  0.65671618  0.19592839  0.17307464    -0.70400
O522        O  0.54963516  0.19161225  0.29003482    -0.70400
O523        O  0.98124568  0.09192909  0.26351436    -0.70400
O524        O  0.63112421  0.10068832  0.20226994    -0.70400
O525        O  0.58615213  0.09545125  0.29681344    -0.70400
O526        O  0.01991601  0.08843862  0.16941375    -0.70500
V527        V  0.60412202  0.19522436  0.23179058     1.35200
V528        V  0.55493612  0.09438251  0.23287462     1.35200
C529        C  0.00499500  0.13159642  0.15931467     0.78900
C530        C  0.64580871  0.14107336  0.30546934     0.78900
C531        C  0.65889878  0.14229177  0.16794380     0.78800
C532        C  0.99370907  0.13497874  0.29617536     0.78800
O533        O  0.90633349  0.01919568  0.20167885    -0.70400
O534        O  0.89980829  0.37108167  0.26234390    -0.70600
O535        O  0.90455787  0.41596523  0.16793954    -0.70400
O536        O  0.91005854  0.98014580  0.29565423    -0.70400
O537        O  0.81071035  0.46494977  0.28007047    -0.70400
O538        O  0.80424786  0.33163142  0.18559248    -0.70400
O539        O  0.80347176  0.34471133  0.29155632    -0.70400
O540        O  0.80655385  0.45033341  0.17461630    -0.70500
V541        V  0.90504746  0.44636262  0.23199646     1.35200
V542        V  0.80345734  0.39656335  0.23289214     1.35200
C543        C  0.86319425  0.00616582  0.16866063     0.78900
C544        C  0.85793323  0.34328176  0.29671659     0.78900
C545        C  0.85913469  0.35653950  0.15923077     0.78800
C546        C  0.86641917  0.99477860  0.30550232     0.78800
C547        C  0.61545255  0.17325596  0.84362995     0.03700
C548        C  0.54941292  0.16639531  0.84587110     0.03700
C549        C  0.52120363  0.16560236  0.89206432    -0.16800
C550        C  0.55742438  0.17968732  0.93722150     0.03700
C551        C  0.62416742  0.18694863  0.93607586     0.03700
C552        C  0.65009353  0.18198502  0.88892775    -0.16800
H553        H  0.69912915  0.18597677  0.88723945     0.05700
H554        H  0.97037032  0.15806299  0.89231963     0.05700
C555        C  0.61148356  0.45249894  0.84509622     0.03700
C556        C  0.54822811  0.38795562  0.84281672     0.03700
C557        C  0.52016360  0.35346682  0.88794437    -0.16800
C558        C  0.55430552  0.37643106  0.93458619     0.03700
C559        C  0.61851679  0.44122487  0.93590386     0.03700
C560        C  0.64268135  0.47806673  0.89109675    -0.16800
H561        H  0.68952197  0.02739660  0.89138372     0.05700
H562        H  0.97232078  0.30511661  0.88629697     0.05700
C563        C  0.82311976  0.44037176  0.84316658     0.03700
C564        C  0.81859756  0.37575050  0.84439685     0.03700
C565        C  0.80985724  0.34343120  0.89008920    -0.16800
C566        C  0.80614668  0.37102859  0.93620925     0.03700
C567        C  0.81229347  0.43679387  0.93578647     0.03700
C568        C  0.82216208  0.46964872  0.88890442    -0.16800
H569        H  0.82590154  0.01833091  0.88778752     0.05700
H570        H  0.80793408  0.29564984  0.88956896     0.05700
C571        C  0.54483520  0.38736729  0.61955046     0.03700
C572        C  0.61036852  0.44956075  0.62189753     0.03700
C573        C  0.64533155  0.47726440  0.57675925    -0.16800
C574        C  0.62163624  0.44374774  0.53000736     0.03700
C575        C  0.55636070  0.38005093  0.52893256     0.03700
C576        C  0.51875255  0.35679743  0.57352470    -0.16800
H577        H  0.96871358  0.31054884  0.57311185     0.05700
H578        H  0.69423914  0.02436395  0.57848543     0.05700
O579        O  0.59824257  0.12770217  0.76236653    -0.70400
O580        O  0.59177643  0.47962084  0.70168790    -0.70600
O581        O  0.58806274  0.51865992  0.79565766    -0.70400
O582        O  0.59349341  0.08285195  0.66796064    -0.70400
O583        O  0.69381073  0.16717990  0.68561173    -0.70400
O584        O  0.68736479  0.03386179  0.78010267    -0.70400
O585        O  0.69151299  0.04848611  0.67465007    -0.70400
O586        O  0.69458830  0.15409068  0.79157833    -0.70500
V587        V  0.59301149  0.05243862  0.73201632     1.35200
V588        V  0.69460466  0.10224684  0.73291915     1.35200
C589        C  0.64012239  0.15551078  0.79673504     0.78900
C590        C  0.63491552  0.49265146  0.66867494     0.78900
C591        C  0.63170003  0.50402345  0.80551225     0.78800
C592        C  0.63892454  0.14227529  0.65924612     0.78800
C593        C  0.55484951  0.17007437  0.62157030     0.03700
C594        C  0.62018645  0.17514074  0.62027118     0.03700
C595        C  0.65298108  0.18442993  0.57459952    -0.16800
C596        C  0.62563968  0.18925278  0.52860114     0.03700
C597        C  0.55928290  0.18305992  0.52915093     0.03700
C598        C  0.52536664  0.17122267  0.57587161    -0.16800
H599        H  0.97605020  0.16689793  0.57699557     0.05700
H600        H  0.70123632  0.18656542  0.57512433     0.05700
C601        C  0.82597874  0.44558008  0.61919975     0.03700
C602        C  0.82047375  0.38060641  0.62119483     0.03700
C603        C  0.81254773  0.34679236  0.57577849    -0.16800
C604        C  0.80828211  0.37298108  0.52860795     0.03700
C605        C  0.81503229  0.43895748  0.52757711     0.03700
C606        C  0.82638127  0.47359221  0.57312316    -0.16800
H607        H  0.83257717  0.02345279  0.57313967     0.05700
H608        H  0.80912317  0.29839137  0.57732754     0.05700
O609        O  0.52231456  0.11761501  0.70061808    -0.70400
O610        O  0.87506369  0.47235155  0.76388394    -0.70600
O611        O  0.91795881  0.50994481  0.66927083    -0.70400
O612        O  0.48474768  0.07538571  0.79528043    -0.70400
O613        O  0.96878923  0.15781905  0.78002071    -0.70400
O614        O  0.83518013  0.02611684  0.68494053    -0.70400
O615        O  0.84674067  0.04011133  0.79077087    -0.70400
O616        O  0.95465889  0.14684129  0.67419566    -0.70500
V617        V  0.94964013  0.04402388  0.73228800     1.35200
V618        V  0.90020561  0.09390688  0.73245890     1.35200
C619        C  0.51025541  0.14789573  0.66796287     0.78900
C620        C  0.84519700  0.48465847  0.79679390     0.78900
C621        C  0.85932950  0.49615720  0.65936403     0.78800
C622        C  0.49868756  0.13354954  0.80551922     0.78800
O623        O  0.82793159  0.30330353  0.77908853    -0.70400
O624        O  0.96325946  0.31172067  0.68461906    -0.70600
O625        O  0.94847881  0.30719588  0.79005390    -0.70400
O626        O  0.84140922  0.30288371  0.67306768    -0.70400
O627        O  0.86696868  0.39810706  0.70226397    -0.70400
O628        O  0.51686171  0.40688233  0.76352492    -0.70400
O629        O  0.47819116  0.41037754  0.66941835    -0.70400
O630        O  0.91194299  0.40332604  0.79681385    -0.70500
V631        V  0.89399218  0.30358050  0.73179694     1.35200
V632        V  0.94316513  0.40441953  0.73287671     1.35200
C633        C  0.85228038  0.35770897  0.80545452     0.78900
C634        C  0.49311607  0.36722265  0.65932674     0.78900
C635        C  0.50440212  0.36383312  0.79619318     0.78800
C636        C  0.83922198  0.35651854  0.66792971     0.78800
C637        C  0.67582590  0.21071133  0.97820082     0.03700
C638        C  0.71231272  0.17651986  0.98623171     0.03700
C639        C  0.78388918  0.21534314  0.98082023    -0.16800
C640        C  0.82110224  0.28633919  0.98631114     0.03700
C641        C  0.78436751  0.32069762  0.97874056     0.03700
C642        C  0.71275437  0.28162344  0.98399250    -0.16800
H643        H  0.68547282  0.30654426  0.97800239     0.05700
H644        H  0.81101962  0.19029152  0.98688310     0.05700
C645        C  0.96354909  0.28376200  0.99258774     0.03700
C646        C  0.53098490  0.31911198  0.97122022     0.03700
C647        C  0.56179883  0.28137925  0.96157822    -0.16800
C648        C  0.53274708  0.21240956  0.97287586     0.03700
C649        C  0.96475882  0.17669541  0.99313781     0.03700
C650        C  0.93425101  0.21454945  0.00339833    -0.16800
H651        H  0.89484712  0.19458801  0.03147526     0.05700
H652        H  0.60129592  0.30098246  0.93356920     0.05700
C653        C  0.67573684  0.46494702  0.97306098     0.03700
C654        C  0.71308963  0.03404281  0.99026832     0.03700
C655        C  0.78342082  0.06391747  0.99862632    -0.16800
C656        C  0.81984110  0.03114043  0.99211563     0.03700
C657        C  0.78284890  0.46254131  0.97389844     0.03700
C658        C  0.71234097  0.43244367  0.96595384    -0.16800
H659        H  0.69020102  0.39044431  0.94070213     0.05700
H660        H  0.80529220  0.10595877  0.02382167     0.05700
C661        C  0.67829003  0.46767573  0.49215356     0.03700
C662        C  0.71525949  0.03626238  0.47393633     0.03700
C663        C  0.78575979  0.06636393  0.46594565    -0.16800
C664        C  0.82237430  0.03386717  0.47303684     0.03700
C665        C  0.78504376  0.46478209  0.49025881     0.03700
C666        C  0.71472498  0.43491274  0.49867829    -0.16800
H667        H  0.69289558  0.39290303  0.52389681     0.05700
H668        H  0.80786774  0.10835024  0.44068739     0.05700
C669        C  0.53333688  0.32213865  0.49313903     0.03700
C670        C  0.96534028  0.28642456  0.47288241     0.03700
C671        C  0.93628622  0.21745700  0.46157393    -0.16800
C672        C  0.96711270  0.17972854  0.47119583     0.03700
C673        C  0.53455345  0.21507720  0.49256021     0.03700
C674        C  0.56386192  0.28429145  0.50336913    -0.16800
H675        H  0.60327990  0.30424882  0.53142530     0.05700
H676        H  0.89677851  0.19785974  0.43357936     0.05700
C677        C  0.71370325  0.17809975  0.47876156     0.03700
C678        C  0.67697997  0.21247107  0.48632206     0.03700
C679        C  0.71420234  0.28347060  0.48083048    -0.16800
C680        C  0.78578136  0.32228264  0.48622254     0.03700
C681        C  0.82225098  0.28808065  0.47819283     0.03700
C682        C  0.78531948  0.21716835  0.48399580    -0.16800
H683        H  0.81259060  0.19224256  0.47800805     0.05700
H684        H  0.68709304  0.30853592  0.48689636     0.05700
C685        C  0.67508508  0.55844792  0.34319637     0.03700
C686        C  0.67961885  0.62307567  0.34441200     0.03700
C687        C  0.68829621  0.65536429  0.39010208    -0.16800
C688        C  0.69196365  0.62774732  0.43623029     0.03700
C689        C  0.68582412  0.56198487  0.43581762     0.03700
C690        C  0.67596716  0.52913672  0.38894150    -0.16800
H691        H  0.67205488  0.98042739  0.38786334     0.05700
H692        H  0.69020702  0.70313937  0.38957126     0.05700
C693        C  0.67240889  0.55334560  0.11924584     0.03700
C694        C  0.67783796  0.61828821  0.12121716     0.03100
C695        C  0.68571772  0.65207428  0.07578977    -0.16800
C696        C  0.68997145  0.62587971  0.02862597     0.03700
C697        C  0.68328925  0.55993078  0.02761515     0.03700
C698        C  0.67206845  0.52535290  0.07318147    -0.16800
H699        H  0.66557185  0.97536211  0.07320257     0.05700
H700        H  0.68908633  0.70044884  0.07732342     0.05700
O701        O  0.52922794  0.84093353  0.28006723    -0.70400
O702        O  0.66285984  0.97265875  0.18501075    -0.70600
O703        O  0.65125654  0.95865036  0.29084245    -0.70400
O704        O  0.54338736  0.85193027  0.17425071    -0.70400
O705        O  0.97570695  0.88112622  0.20065264    -0.70400
O706        O  0.62326104  0.52654831  0.26387707    -0.70400
O707        O  0.58037844  0.48898031  0.16925632    -0.70400
O708        O  0.01326234  0.92336349  0.29530245    -0.70500
V709        V  0.59782156  0.90485787  0.23252042     1.35200
V710        V  0.54837495  0.95472685  0.23231460     1.35200
C711        C  0.99932044  0.86519780  0.30554626     0.78900
C712        C  0.63900459  0.50274128  0.15939030     0.78900
C713        C  0.65305229  0.51418740  0.29681887     0.78800
C714        C  0.98778367  0.85086320  0.16800523     0.78800
C715        C  0.94321028  0.82870961  0.12160235     0.03700
C716        C  0.87787222  0.82364215  0.12028511     0.03700
C717        C  0.84510699  0.81438956  0.07460030    -0.16800
C718        C  0.87246900  0.80958768  0.02861113     0.03700
C719        C  0.93882026  0.81576735  0.02918480     0.03700
C720        C  0.97272025  0.82759716  0.07591396    -0.16800
H721        H  0.52204082  0.83193115  0.07705367     0.05700
H722        H  0.79685819  0.81226518  0.07510881     0.05700
C723        C  0.88256142  0.82549206  0.34364075     0.03700
C724        C  0.94860088  0.83235329  0.34589082     0.03700
C725        C  0.97683223  0.83318034  0.39208559    -0.16800
C726        C  0.94062429  0.81910004  0.43724098     0.03700
C727        C  0.87387691  0.81182362  0.43608696     0.03700
C728        C  0.84793373  0.81677342  0.38893585    -0.16800
H729        H  0.79889966  0.81278481  0.38724341     0.05700
H730        H  0.52767146  0.84073316  0.39234497     0.05700
C731        C  0.88782785  0.54931092  0.12188076     0.03700
C732        C  0.95338518  0.61147460  0.11952434     0.03700
C733        C  0.97947740  0.64200459  0.07349000    -0.16800
C734        C  0.94184157  0.61876767  0.02890675     0.03700
C735        C  0.87655771  0.55508276  0.02998208     0.03700
C736        C  0.85285101  0.52159711  0.07674559    -0.16800
H737        H  0.80380703  0.97437615  0.07842518     0.05700
H738        H  0.52953370  0.68823247  0.07306667     0.05700
C739        C  0.88674316  0.54633160  0.34508063     0.03700
C740        C  0.94999175  0.61088123  0.34279718     0.03700
C741        C  0.97802174  0.64539309  0.38792159    -0.16800
C742        C  0.94386275  0.62242037  0.43455691     0.03700
C743        C  0.87967214  0.55761314  0.43587610     0.03700
C744        C  0.85553511  0.52075995  0.39107840    -0.16800
H745        H  0.80848402  0.97140518  0.39137430     0.05700
H746        H  0.52585087  0.69375617  0.38627621     0.05700
O747        O  0.53496993  0.68711885  0.18459207    -0.70400
O748        O  0.67029998  0.69553625  0.27908760    -0.70600
O749        O  0.65683536  0.69597928  0.17306111    -0.70400
O750        O  0.54974968  0.69163612  0.29003220    -0.70400
O751        O  0.98137779  0.59194197  0.26352159    -0.70400
O752        O  0.63127080  0.60075290  0.20225975    -0.70400
O753        O  0.58629715  0.59550138  0.29680334    -0.70400
O754        O  0.02002597  0.58845665  0.16941259    -0.70500
V755        V  0.60423936  0.69526088  0.23178240     1.35200
V756        V  0.55507143  0.59442014  0.23286914     1.35200
C757        C  0.00510596  0.63161528  0.15930812     0.78900
C758        C  0.64595276  0.64112346  0.30545291     0.78900
C759        C  0.65903441  0.64235184  0.16793218     0.78800
C760        C  0.99383142  0.63499532  0.29617897     0.78800
O761        O  0.90641141  0.51925810  0.20168240    -0.70400
O762        O  0.89977731  0.87107354  0.26238188    -0.70600
O763        O  0.90453768  0.91591546  0.16797206    -0.70400
O764        O  0.91013627  0.48016544  0.29564165    -0.70400
O765        O  0.81061756  0.96488256  0.28007193    -0.70400
O766        O  0.80422039  0.83157573  0.18560735    -0.70400
O767        O  0.80341948  0.84465639  0.29157210    -0.70400
O768        O  0.80648461  0.95025229  0.17461272    -0.70500
V769        V  0.90499198  0.94632666  0.23201670     1.35200
V770        V  0.80339881  0.89649868  0.23289989     1.35200
C771        C  0.86327135  0.50623934  0.16866638     0.78900
C772        C  0.85789122  0.84324671  0.29674155     0.78900
C773        C  0.85911535  0.85649060  0.15925430     0.78800
C774        C  0.86651406  0.49481861  0.30549732     0.78800
C775        C  0.61556823  0.67332459  0.84363452     0.03700
C776        C  0.54954128  0.66649787  0.84586670     0.03700
C777        C  0.52131224  0.66568724  0.89205358    -0.16800
C778        C  0.55750350  0.67973508  0.93721866     0.03700
C779        C  0.62424080  0.68698238  0.93608279     0.03700
C780        C  0.65018090  0.68202063  0.88893933    -0.16800
H781        H  0.69920346  0.68598413  0.88725947     0.05700
H782        H  0.97048275  0.65815911  0.89230002     0.05700
C783        C  0.61134766  0.95247380  0.84511126     0.03700
C784        C  0.54809648  0.88792765  0.84283505     0.03700
C785        C  0.52006201  0.85343760  0.88796581    -0.16800
C786        C  0.55423684  0.87641017  0.93459672     0.03700
C787        C  0.61843297  0.94121056  0.93591026     0.03700
C788        C  0.64256517  0.97805435  0.89110526    -0.16800
H789        H  0.68964540  0.52740342  0.89138042     0.05700
H790        H  0.97222632  0.80508012  0.88632774     0.05700
C791        C  0.82298103  0.94032767  0.84316542     0.03700
C792        C  0.81845770  0.87570505  0.84439969     0.03700
C793        C  0.80977758  0.84342070  0.89009870    -0.16800
C794        C  0.80611530  0.87104440  0.93621930     0.03700
C795        C  0.81224017  0.93680042  0.93578967     0.03700
C796        C  0.82206764  0.96963041  0.88890188    -0.16800
H797        H  0.82600036  0.51835112  0.88779424     0.05700
H798        H  0.80787171  0.79564834  0.88958249     0.05700
C799        C  0.54471685  0.88731612  0.61956211     0.03700
C800        C  0.61026153  0.94949547  0.62191886     0.03700
C801        C  0.64525201  0.97720210  0.57678781    -0.16800
C802        C  0.62156573  0.94370702  0.53002920     0.03700
C803        C  0.55628896  0.88001311  0.52894882     0.03700
C804        C  0.51865211  0.85676004  0.57353041    -0.16800
H805        H  0.96860832  0.81051754  0.57310600     0.05700
H806        H  0.69431246  0.52443420  0.57844715     0.05700
O807        O  0.59834991  0.62773671  0.76238346    -0.70400
O808        O  0.59165026  0.97955637  0.70170021    -0.70600
O809        O  0.58792825  0.01862015  0.79565904    -0.70400
O810        O  0.59358270  0.58291152  0.66797382    -0.70400
O811        O  0.69390691  0.66724187  0.68560954    -0.70400
O812        O  0.68750192  0.53392041  0.78008808    -0.70400
O813        O  0.69162835  0.54856178  0.67462913    -0.70400
O814        O  0.69470698  0.65414863  0.79158022    -0.70500
V815        V  0.59312851  0.55248889  0.73202062     1.35200
V816        V  0.69472208  0.60231107  0.73291091     1.35200
C817        C  0.64023634  0.65556047  0.79674415     0.78900
C818        C  0.63479817  0.99257907  0.66869566     0.78900
C819        C  0.63156134  0.00398081  0.80552283     0.78800
C820        C  0.63901357  0.64233331  0.65925082     0.78800
C821        C  0.55493529  0.67013252  0.62157767     0.03700
C822        C  0.62026611  0.67518722  0.62026992     0.03700
C823        C  0.65302010  0.68442095  0.57458774    -0.16800
C824        C  0.62565454  0.68922244  0.52859372     0.03700
C825        C  0.55930537  0.68304283  0.52915721     0.03700
C826        C  0.52541465  0.67122768  0.57588445    -0.16800
H827        H  0.97609651  0.66689901  0.57701770     0.05700
H828        H  0.70126535  0.68653681  0.57510306     0.05700
C829        C  0.82579555  0.94549236  0.61920538     0.03700
C830        C  0.82031677  0.88052908  0.62119655     0.03700
C831        C  0.81243393  0.84673852  0.57577736    -0.16800
C832        C  0.80819024  0.87293747  0.52860580     0.03700
C833        C  0.81491420  0.93890499  0.52757821     0.03700
C834        C  0.82620394  0.97351050  0.57313137    -0.16800
H835        H  0.83277748  0.52354421  0.57312610     0.05700
H836        H  0.80903722  0.79835073  0.57732485     0.05700
O837        O  0.52246049  0.61775223  0.70064494    -0.70400
O838        O  0.87487977  0.97226975  0.76387098    -0.70600
O839        O  0.91778424  0.00984975  0.66926057    -0.70400
O840        O  0.48488149  0.57548878  0.79529385    -0.70400
O841        O  0.96889952  0.65790407  0.78002760    -0.70400
O842        O  0.83532573  0.52617245  0.68494655    -0.70400
O843        O  0.84687145  0.54015836  0.79077808    -0.70400
O844        O  0.95476334  0.64691545  0.67420729    -0.70500
V845        V  0.94980086  0.54412846  0.73230169     1.35200
V846        V  0.90032632  0.59397151  0.73246903     1.35200
C847        C  0.51037300  0.64799644  0.66797967     0.78900
C848        C  0.84504005  0.98459921  0.79678639     0.78900
C849        C  0.85915918  0.99607602  0.65936190     0.78800
C850        C  0.49881697  0.63365130  0.80552152     0.78800
O851        O  0.82778436  0.80324668  0.77909394    -0.70400
O852        O  0.96312730  0.81166956  0.68463149    -0.70600
O853        O  0.94834059  0.80715540  0.79007131    -0.70400
O854        O  0.84126732  0.80281376  0.67307137    -0.70400
O855        O  0.86681269  0.89803216  0.70226285    -0.70400
O856        O  0.51671360  0.90684268  0.76353986    -0.70400
O857        O  0.47805472  0.91032263  0.66942282    -0.70400
O858        O  0.91178953  0.90327506  0.79681120    -0.70500
V859        V  0.89385255  0.80352539  0.73180676     1.35200
V860        V  0.94301553  0.90436343  0.73287929     1.35200
C861        C  0.85212993  0.85765674  0.80545441     0.78900
C862        C  0.49298446  0.86716938  0.65933507     0.78900
C863        C  0.50425947  0.86379798  0.79621203     0.78800
C864        C  0.83906996  0.85644279  0.66793066     0.78800
C865        C  0.67588266  0.71073192  0.97821414     0.03700
C866        C  0.71239352  0.67655875  0.98622431     0.03700
C867        C  0.78396694  0.71540466  0.98079928    -0.16800
C868        C  0.82115239  0.78639671  0.98631301     0.03700
C869        C  0.78439176  0.82073691  0.97876181     0.03700
C870        C  0.71278178  0.78164105  0.98402846    -0.16800
H871        H  0.68548021  0.80654875  0.97804047     0.05700
H872        H  0.81112189  0.69037179  0.98685167     0.05700
C873        C  0.96356102  0.78374611  0.99261736     0.03700
C874        C  0.53097333  0.81910421  0.97122272     0.03700
C875        C  0.56181265  0.78139901  0.96156391    -0.16800
C876        C  0.53280458  0.71244038  0.97287304     0.03700
C877        C  0.96482541  0.67670832  0.99315083     0.03700
C878        C  0.93430771  0.71454670  0.00344650    -0.16800
H879        H  0.89493757  0.69459170  0.03155221     0.05700
H880        H  0.60128498  0.80100290  0.93353608     0.05700
C881        C  0.67566557  0.96493431  0.97305662     0.03700
C882        C  0.71317769  0.53406920  0.99024614     0.03700
C883        C  0.78351493  0.56394887  0.99857395    -0.16800
C884        C  0.81991882  0.53114992  0.99210103     0.03700
C885        C  0.78278333  0.96254093  0.97389676     0.03700
C886        C  0.71227850  0.93244160  0.96594298    -0.16800
H887        H  0.69015212  0.89044684  0.94068918     0.05700
H888        H  0.80540456  0.60602089  0.02373503     0.05700
C889        C  0.67821443  0.96765862  0.49216030     0.03700
C890        C  0.71532726  0.53626644  0.47390878     0.03700
C891        C  0.78582354  0.56636705  0.46591006    -0.16800
C892        C  0.82244525  0.53388202  0.47302045     0.03700
C893        C  0.78496023  0.96475056  0.49024386     0.03700
C894        C  0.71463509  0.93487351  0.49863590    -0.16800
H895        H  0.69279064  0.89282942  0.52381443     0.05700
H896        H  0.80791858  0.60834271  0.44064269     0.05700
C897        C  0.53329706  0.82210034  0.49316825     0.03700
C898        C  0.96531276  0.78637559  0.47289468     0.03700
C899        C  0.93629722  0.71742019  0.46156931    -0.16800
C900        C  0.96714813  0.67971575  0.47119486     0.03700
C901        C  0.53457076  0.71506967  0.49258038     0.03700
C902        C  0.56383453  0.78426838  0.50341910    -0.16800
H903        H  0.60321937  0.80421269  0.53150265     0.05700
H904        H  0.89681150  0.69782814  0.43355820     0.05700
C905        C  0.71371500  0.67806971  0.47875698     0.03700
C906        C  0.67696899  0.71242190  0.48630180     0.03700
C907        C  0.71416629  0.78341862  0.48079535    -0.16800
C908        C  0.78574039  0.82225002  0.48621599     0.03700
C909        C  0.82223560  0.78806480  0.47821117     0.03700
C910        C  0.78532562  0.71715258  0.48402001    -0.16800
H911        H  0.81261329  0.69223689  0.47803631     0.05700
H912        H  0.68703097  0.80846508  0.48684823     0.05700
loop_ 
_geom_bond_atom_site_label_1 
_geom_bond_atom_site_label_2 
_geom_bond_distance 
_geom_bond_site_symmetry_2 
_ccdc_geom_bond_type 
C1            C2   1.446       .  A
C1            C6   1.401       .  A
C1           C29   1.514       .  S
C2            C3   1.388       .  A
C2           C74   1.480       .  S
C3            C4   1.408       .  A
C3            H8   1.085       .  S
C4            C5   1.455       .  A
C4          C221   1.511       .  S
C5            C6   1.418       .  A
C5          C206   1.506       .  S
C6          H235   1.086   1_545  S
H7          C234   1.086       .  S
C9           C10   1.445       .  A
C9           C14   1.386       .  A
C9           C28   1.472       .  S
C10          C11   1.401       .  A
C10          C75   1.517       .  S
C11          C12   1.421       .  A
C11          H16   1.083       .  S
C12          C13   1.454       .  A
C12         C182   1.513   1_554  S
C13          C14   1.402       .  A
C13         C198   1.502   1_554  S
C14         H243   1.088   1_545  S
H15         C242   1.088       .  S
O17          V25   1.960       .  S
O17         C483   1.287   1_455  A
O18          V25   1.962       .  S
O18         C256   1.287       .  A
O19          V25   1.969       .  S
O19         C257   1.277       .  A
O20          V25   1.969       .  S
O20         C486   1.277   1_455  A
O21         V482   1.852       .  S
O21          C30   1.237       .  A
O22         V254   1.854   1_545  S
O22          C29   1.236       .  A
O23         V254   1.838       .  S
O23          C28   1.241   1_565  A
O24         V482   1.839       .  S
O24          C27   1.242       .  A
V25          V26   2.001       .  T
V26         O477   1.852   1_455  S
V26         O250   1.854       .  S
V26         O251   1.838       .  S
V26         O480   1.839       .  S
C27          C40   1.472       .  S
C27         O473   1.287       .  A
C28         O246   1.287   1_545  A
C29         O247   1.277   1_545  A
C30          C31   1.514       .  S
C30         O476   1.277       .  A
C31          C32   1.445       .  A
C31          C36   1.401       .  A
C32          C33   1.388       .  A
C32          C89   1.479       .  S
C33          C34   1.408       .  A
C33          H38   1.085       .  S
C34          C35   1.457       .  A
C34         C184   1.513   1_554  S
C35          C36   1.418       .  A
C35         C189   1.505   1_554  S
C36         H493   1.086       .  S
H37         C492   1.086   1_455  S
C39          C40   1.443       .  A
C39          C44   1.401       .  A
C39          C88   1.515       .  S
C40          C41   1.387       .  A
C41          C42   1.401       .  A
C41         H502   1.088       .  S
C42          C43   1.455       .  A
C42         C214   1.500       .  S
C43          C44   1.421       .  A
C43         C225   1.513       .  S
C44          H45   1.083       .  S
H46         C497   1.088   1_455  S
C47          C48   1.442       .  A
C47          C52   1.402       .  A
C47          C87   1.510       .  S
C48          C49   1.386       .  A
C48          C73   1.475       .  S
C49          C50   1.401       .  A
C49         H510   1.088       .  S
C50          C51   1.454       .  A
C50         C193   1.499   1_554  S
C51          C52   1.417       .  A
C51         C200   1.506   1_554  S
C52         H281   1.085   1_545  S
H53         C280   1.085       .  S
H54         C505   1.088   1_455  S
C55          C56   1.443       .  A
C55          C60   1.387       .  A
C55          C90   1.474   1_545  S
C56          C57   1.400       .  A
C56          C76   1.511       .  S
C57          C58   1.417       .  A
C57         H518   1.086       .  S
C58          C59   1.455       .  A
C58         C216   1.503       .  S
C59          C60   1.402       .  A
C59         C208   1.502       .  S
C60         H289   1.087   1_545  S
H61         C288   1.087       .  S
H62         C513   1.086   1_455  S
O63          V71   1.960       .  S
O63         C529   1.287       .  A
O64          V71   1.971       .  S
O64          C74   1.288       .  A
O65          V71   1.972       .  S
O65          C75   1.277       .  A
O66          V71   1.969       .  S
O66         C532   1.280   1_455  A
O67         V528   1.855       .  S
O67          C76   1.239       .  A
O68          V72   1.868       .  S
O68          C75   1.237       .  A
O69          V72   1.844       .  S
O69          C74   1.239       .  A
O70         V528   1.847       .  S
O70          C73   1.245       .  A
V71          V72   1.994       .  T
V72         O523   1.855   1_455  S
V72         O526   1.847       .  S
C73         O519   1.287       .  A
C76         O522   1.280       .  A
O77         V313   1.858   1_545  S
O77          C87   1.239       .  A
O78          V85   1.869       .  S
O78          C88   1.238       .  A
O79          V85   1.844       .  S
O79          C89   1.240       .  A
O80         V313   1.846       .  S
O80          C90   1.244       .  A
O81          V86   1.961       .  S
O81         C318   1.287       .  A
O82          V86   1.970       .  S
O82          C89   1.288       .  A
O83          V86   1.971       .  S
O83          C88   1.278       .  A
O84          V86   1.969       .  S
O84         C315   1.280       .  A
V85         O305   1.858       .  S
V85         O308   1.846       .  S
V85          V86   1.993       .  T
C87         O312   1.280   1_545  A
C90         O309   1.287       .  A
C91          C92   1.444       .  A
C91          C96   1.401       .  A
C91         C133   1.515       .  S
C92          C93   1.387       .  A
C92         C166   1.472   1_455  S
C93          C94   1.401       .  A
C93         H554   1.088   1_455  S
C94          C95   1.455       .  A
C94         C192   1.500       .  S
C95          C96   1.421       .  A
C95         C181   1.513       .  S
C96          H97   1.083       .  S
H98         C549   1.088       .  S
C99         C100   1.443       .  A
C99         C104   1.387       .  A
C99         C135   1.474       .  S
C100        C101   1.400       .  A
C100        C179   1.511       .  S
C101        C102   1.417       .  A
C101        H562   1.086   1_455  S
C102        C103   1.455       .  A
C102        C190   1.503       .  S
C103        C104   1.402       .  A
C103        C197   1.502       .  S
C104        H333   1.087       .  S
H105        C332   1.087   1_545  S
H106        C557   1.086       .  S
C107        C108   1.446       .  A
C107        C112   1.401       .  A
C107        C164   1.514       .  S
C108        C109   1.388       .  A
C108        C177   1.480       .  S
C109        C110   1.408       .  A
C109        H114   1.085       .  S
C110        C111   1.455       .  A
C110        C185   1.511       .  S
C111        C112   1.418       .  A
C111        C201   1.506       .  S
C112        H341   1.086       .  S
H113        C340   1.086   1_545  S
C115        C116   1.442       .  A
C115        C120   1.386       .  A
C115        C178   1.475   1_455  S
C116        C117   1.402       .  A
C116        C134   1.510       .  S
C117        C118   1.417       .  A
C117        H350   1.085       .  S
C118        C119   1.454       .  A
C118        C205   1.506       .  S
C119        C120   1.401       .  A
C119        C213   1.499       .  S
C120        H577   1.088   1_455  S
H121        C576   1.088       .  S
H122        C345   1.085   1_545  S
O123        V131   1.869       .  S
O123        C133   1.238       .  A
O124        V359   1.858       .  S
O124        C134   1.239       .  A
O125        V359   1.846       .  S
O125        C135   1.244       .  A
O126        V131   1.844       .  S
O126        C136   1.240       .  A
O127        V132   1.970       .  S
O127        C136   1.288       .  A
O128        V132   1.960       .  S
O128        C363   1.287       .  A
O129        V132   1.969       .  S
O129        C362   1.280   1_545  A
O130        V132   1.972       .  S
O130        C133   1.278       .  A
V131        O352   1.858   1_545  S
V131        O353   1.846       .  S
V131        V132   1.993       .  T
C134        O357   1.280       .  A
C135        O356   1.287       .  A
C136        C138   1.479       .  S
C137        C138   1.445       .  A
C137        C142   1.401       .  A
C137        C163   1.514       .  S
C138        C139   1.388       .  A
C139        C140   1.408       .  A
C139        H144   1.085       .  S
C140        C141   1.457       .  A
C140        C222   1.513       .  S
C141        C142   1.418       .  A
C141        C217   1.505       .  S
C142        H599   1.086   1_455  S
H143        C598   1.086       .  S
C145        C146   1.445       .  A
C145        C150   1.386       .  A
C145        C165   1.472       .  S
C146        C147   1.401       .  A
C146        C180   1.516       .  S
C147        C148   1.421       .  A
C147        H152   1.083       .  S
C148        C149   1.454       .  A
C148        C224   1.512       .  S
C149        C150   1.402       .  A
C149        C209   1.501       .  S
C150        H379   1.088       .  S
H151        C378   1.088   1_545  S
O153        V617   1.853   1_455  S
O153        C163   1.237       .  A
O154        V389   1.854       .  S
O154        C164   1.236       .  A
O155        V389   1.838       .  S
O155        C165   1.241       .  A
O156        V617   1.839       .  S
O156        C166   1.242       .  A
O157        V162   1.960       .  S
O157        C622   1.287       .  A
O158        V162   1.962       .  S
O158        C393   1.287   1_545  A
O159        V162   1.969       .  S
O159        C392   1.277   1_545  A
O160        V162   1.969       .  S
O160        C619   1.277       .  A
V161        O609   1.853       .  S
V161        O382   1.854   1_545  S
V161        O383   1.838       .  S
V161        O612   1.839       .  S
V161        V162   2.001       .  T
C163        O616   1.277   1_455  A
C164        O387   1.277       .  A
C165        O386   1.287       .  A
C166        O613   1.287       .  A
O167        V175   1.972       .  S
O167        C177   1.288       .  A
O168        V175   1.960       .  S
O168        C634   1.287       .  A
O169        V175   1.969       .  S
O169        C635   1.280       .  A
O170        V175   1.972       .  S
O170        C180   1.277       .  A
O171        V176   1.868       .  S
O171        C180   1.237       .  A
O172        V632   1.855   1_455  S
O172        C179   1.239       .  A
O173        V632   1.847       .  S
O173        C178   1.245       .  A
O174        V176   1.844       .  S
O174        C177   1.239       .  A
V175        V176   1.994       .  T
V176        O628   1.855       .  S
V176        O629   1.847       .  S
C178        O624   1.287       .  A
C179        O625   1.280   1_455  A
C181        C182   1.440       .  A
C181        C186   1.409       .  A
C182        C183   1.411       .  A
C183        C184   1.410       .  A
C183        H188   1.064       .  S
C184        C185   1.447       .  A
C185        C186   1.412       .  A
C186        H187   1.064       .  S
C189        C194   1.407   1_556  A
C189        C646   1.439       .  A
C190        C191   1.408       .  A
C190        C645   1.439   1_455  A
C191        C192   1.405       .  A
C191        H196   1.076       .  S
C192        C649   1.438   1_455  A
C193        C194   1.408   1_556  A
C193        C648   1.438       .  A
C194        H195   1.075       .  S
C197        C202   1.406       .  A
C197        C426   1.440       .  A
C198        C199   1.405       .  A
C198        C425   1.440   1_545  A
C199        C200   1.405       .  A
C199        H204   1.068   1_556  S
C200        C429   1.439   1_545  A
C201        C202   1.406       .  A
C201        C428   1.439       .  A
C202        H203   1.068       .  S
C205        C210   1.405       .  A
C205        C434   1.439       .  A
C206        C207   1.406       .  A
C206        C433   1.440   1_545  A
C207        C208   1.406       .  A
C207        H212   1.068       .  S
C208        C437   1.440   1_545  A
C209        C210   1.405       .  A
C209        C436   1.440       .  A
C210        H211   1.068       .  S
C213        C218   1.408       .  A
C213        C670   1.438   1_455  A
C214        C215   1.405       .  A
C214        C669   1.438       .  A
C215        C216   1.408       .  A
C215        H220   1.075       .  S
C216        C673   1.439       .  A
C217        C218   1.407       .  A
C217        C672   1.439   1_455  A
C218        H219   1.075       .  S
C221        C222   1.447       .  A
C221        C226   1.412       .  A
C222        C223   1.410       .  A
C223        C224   1.411       .  A
C223        H228   1.064       .  S
C224        C225   1.440       .  A
C225        C226   1.409       .  A
C226        H227   1.064       .  S
C229        C230   1.446       .  A
C229        C234   1.400       .  A
C229        C257   1.514       .  S
C230        C231   1.388       .  A
C230        C302   1.480       .  S
C231        C232   1.408       .  A
C231        H236   1.085       .  S
C232        C233   1.455       .  A
C232        C449   1.511       .  S
C233        C234   1.418       .  A
C233        C434   1.506       .  S
C237        C238   1.445       .  A
C237        C242   1.386       .  A
C237        C256   1.472       .  S
C238        C239   1.401       .  A
C238        C303   1.517       .  S
C239        C240   1.421       .  A
C239        H244   1.083       .  S
C240        C241   1.454       .  A
C240        C410   1.512   1_554  S
C241        C242   1.402       .  A
C241        C426   1.502   1_554  S
O245        V253   1.960       .  S
O245        C711   1.287   1_455  A
O246        V253   1.962       .  S
O247        V253   1.969       .  S
O248        V253   1.969       .  S
O248        C714   1.277   1_455  A
O249        V710   1.853       .  S
O249        C258   1.237       .  A
O250        C257   1.236       .  A
O251        C256   1.241       .  A
O252        V710   1.839       .  S
O252        C255   1.242       .  A
V253        V254   2.001       .  T
V254        O705   1.853   1_455  S
V254        O708   1.839       .  S
C255        C268   1.472       .  S
C255        O701   1.287       .  A
C258        C259   1.514       .  S
C258        O704   1.277       .  A
C259        C260   1.445       .  A
C259        C264   1.401       .  A
C260        C261   1.388       .  A
C260        C317   1.479       .  S
C261        C262   1.408       .  A
C261        H266   1.085       .  S
C262        C263   1.457       .  A
C262        C412   1.513   1_554  S
C263        C264   1.417       .  A
C263        C417   1.505   1_554  S
C264        H721   1.086       .  S
H265        C720   1.086   1_455  S
C267        C268   1.444       .  A
C267        C272   1.401       .  A
C267        C316   1.515       .  S
C268        C269   1.387       .  A
C269        C270   1.401       .  A
C269        H730   1.088       .  S
C270        C271   1.455       .  A
C270        C442   1.500       .  S
C271        C272   1.421       .  A
C271        C453   1.513       .  S
C272        H273   1.083       .  S
H274        C725   1.088   1_455  S
C275        C276   1.442       .  A
C275        C280   1.402       .  A
C275        C315   1.510       .  S
C276        C277   1.386       .  A
C276        C301   1.475       .  S
C277        C278   1.401       .  A
C277        H738   1.088       .  S
C278        C279   1.454       .  A
C278        C421   1.499   1_554  S
C279        C280   1.417       .  A
C279        C428   1.506   1_554  S
H282        C733   1.088   1_455  S
C283        C284   1.443       .  A
C283        C288   1.387       .  A
C283        C318   1.474       .  S
C284        C285   1.400       .  A
C284        C304   1.511       .  S
C285        C286   1.417       .  A
C285        H746   1.086       .  S
C286        C287   1.455       .  A
C286        C444   1.503       .  S
C287        C288   1.402       .  A
C287        C436   1.502       .  S
H290        C741   1.086   1_455  S
O291        V299   1.960       .  S
O291        C757   1.287       .  A
O292        V299   1.972       .  S
O292        C302   1.288       .  A
O293        V299   1.973       .  S
O293        C303   1.277       .  A
O294        V299   1.969       .  S
O294        C760   1.280   1_455  A
O295        V756   1.855       .  S
O295        C304   1.239       .  A
O296        V300   1.868       .  S
O296        C303   1.237       .  A
O297        V300   1.844       .  S
O297        C302   1.239       .  A
O298        V756   1.847       .  S
O298        C301   1.245       .  A
V299        V300   1.994       .  T
V300        O751   1.855   1_455  S
V300        O754   1.847       .  S
C301        O747   1.287       .  A
C304        O750   1.280       .  A
O305        C315   1.239       .  A
O306        V313   1.869       .  S
O306        C316   1.238       .  A
O307        V313   1.844       .  S
O307        C317   1.240       .  A
O308        C318   1.244       .  A
O309        V314   1.961       .  S
O310        V314   1.970       .  S
O310        C317   1.288       .  A
O311        V314   1.972       .  S
O311        C316   1.278       .  A
O312        V314   1.969       .  S
V313        V314   1.993       .  T
C319        C320   1.444       .  A
C319        C324   1.401       .  A
C319        C361   1.516       .  S
C320        C321   1.387       .  A
C320        C394   1.472   1_455  S
C321        C322   1.401       .  A
C321        H782   1.088   1_455  S
C322        C323   1.455       .  A
C322        C420   1.500       .  S
C323        C324   1.421       .  A
C323        C409   1.513       .  S
C324        H325   1.083       .  S
H326        C777   1.088       .  S
C327        C328   1.443       .  A
C327        C332   1.387       .  A
C327        C363   1.474   1_565  S
C328        C329   1.400       .  A
C328        C407   1.511       .  S
C329        C330   1.417       .  A
C329        H790   1.086   1_455  S
C330        C331   1.455       .  A
C330        C418   1.503       .  S
C331        C332   1.402       .  A
C331        C425   1.502       .  S
H334        C785   1.086       .  S
C335        C336   1.446       .  A
C335        C340   1.401       .  A
C335        C392   1.514       .  S
C336        C337   1.388       .  A
C336        C405   1.480       .  S
C337        C338   1.408       .  A
C337        H342   1.085       .  S
C338        C339   1.455       .  A
C338        C413   1.511       .  S
C339        C340   1.418       .  A
C339        C429   1.506       .  S
C343        C344   1.442       .  A
C343        C348   1.386       .  A
C343        C406   1.475   1_455  S
C344        C345   1.402       .  A
C344        C362   1.510       .  S
C345        C346   1.417       .  A
C346        C347   1.454       .  A
C346        C433   1.506       .  S
C347        C348   1.401       .  A
C347        C441   1.499       .  S
C348        H805   1.088   1_455  S
H349        C804   1.088       .  S
O351        V359   1.869       .  S
O351        C361   1.238       .  A
O352        C362   1.239       .  A
O353        C363   1.244       .  A
O354        V359   1.844       .  S
O354        C364   1.240       .  A
O355        V360   1.970       .  S
O355        C364   1.288       .  A
O356        V360   1.961       .  S
O357        V360   1.969       .  S
O358        V360   1.972       .  S
O358        C361   1.278       .  A
V359        V360   1.993       .  T
C364        C366   1.479       .  S
C365        C366   1.445       .  A
C365        C370   1.401       .  A
C365        C391   1.514       .  S
C366        C367   1.388       .  A
C367        C368   1.408       .  A
C367        H372   1.085       .  S
C368        C369   1.456       .  A
C368        C450   1.513       .  S
C369        C370   1.417       .  A
C369        C445   1.505       .  S
C370        H827   1.086   1_455  S
H371        C826   1.086       .  S
C373        C374   1.445       .  A
C373        C378   1.386       .  A
C373        C393   1.472       .  S
C374        C375   1.401       .  A
C374        C408   1.516       .  S
C375        C376   1.421       .  A
C375        H380   1.083       .  S
C376        C377   1.454       .  A
C376        C452   1.512       .  S
C377        C378   1.402       .  A
C377        C437   1.501       .  S
O381        V845   1.853   1_455  S
O381        C391   1.237       .  A
O382        C392   1.236       .  A
O383        C393   1.241   1_545  A
O384        V845   1.839       .  S
O384        C394   1.242       .  A
O385        V390   1.960       .  S
O385        C850   1.287       .  A
O386        V390   1.962       .  S
O387        V390   1.969       .  S
O388        V390   1.969       .  S
O388        C847   1.277       .  A
V389        O837   1.853       .  S
V389        O840   1.839       .  S
V389        V390   2.001       .  T
C391        O844   1.277   1_455  A
C394        O841   1.287       .  A
O395        V403   1.972       .  S
O395        C405   1.288       .  A
O396        V403   1.960       .  S
O396        C862   1.287       .  A
O397        V403   1.969       .  S
O397        C863   1.280       .  A
O398        V403   1.972       .  S
O398        C408   1.277       .  A
O399        V404   1.868       .  S
O399        C408   1.237       .  A
O400        V860   1.855   1_455  S
O400        C407   1.239       .  A
O401        V860   1.847       .  S
O401        C406   1.245       .  A
O402        V404   1.844       .  S
O402        C405   1.239       .  A
V403        V404   1.994       .  T
V404        O856   1.855       .  S
V404        O857   1.847       .  S
C406        O852   1.287       .  A
C407        O853   1.280   1_455  A
C409        C410   1.440       .  A
C409        C414   1.409       .  A
C410        C411   1.411       .  A
C411        C412   1.410       .  A
C411        H416   1.064       .  S
C412        C413   1.447       .  A
C413        C414   1.412       .  A
C414        H415   1.064       .  S
C417        C874   1.439       .  A
C417        C422   1.407   1_556  A
C418        C873   1.439   1_455  A
C418        C419   1.408       .  A
C419        C420   1.405       .  A
C419        H424   1.076       .  S
C420        C877   1.438   1_455  A
C421        C876   1.438       .  A
C421        C422   1.408   1_556  A
C422        H423   1.075       .  S
C425        C430   1.406       .  A
C426        C427   1.405       .  A
C427        C428   1.405       .  A
C427        H432   1.068   1_556  S
C429        C430   1.406       .  A
C430        H431   1.068       .  S
C433        C438   1.405       .  A
C434        C435   1.406       .  A
C435        C436   1.406       .  A
C435        H440   1.068       .  S
C437        C438   1.405       .  A
C438        H439   1.067       .  S
C441        C898   1.438   1_455  A
C441        C446   1.408       .  A
C442        C897   1.438       .  A
C442        C443   1.405       .  A
C443        C444   1.408       .  A
C443        H448   1.075       .  S
C444        C901   1.439       .  A
C445        C900   1.439   1_455  A
C445        C446   1.407       .  A
C446        H447   1.075       .  S
C449        C450   1.447       .  A
C449        C454   1.412       .  A
C450        C451   1.410       .  A
C451        C452   1.411       .  A
C451        H456   1.064       .  S
C452        C453   1.440       .  A
C453        C454   1.409       .  A
C454        H455   1.064       .  S
C457        C458   1.446       .  A
C457        C462   1.401       .  A
C457        C485   1.514       .  S
C458        C459   1.388       .  A
C458        C530   1.480       .  S
C459        C460   1.408       .  A
C459        H464   1.085       .  S
C460        C461   1.455       .  A
C460        C677   1.511       .  S
C461        C462   1.418       .  A
C461        C662   1.506       .  S
C462        H691   1.086   1_545  S
H463        C690   1.086       .  S
C465        C466   1.445       .  A
C465        C470   1.386       .  A
C465        C484   1.472       .  S
C466        C467   1.401       .  A
C466        C531   1.517       .  S
C467        C468   1.421       .  A
C467        H472   1.083       .  S
C468        C469   1.454       .  A
C468        C638   1.513   1_554  S
C469        C470   1.402       .  A
C469        C654   1.502   1_554  S
C470        H699   1.088   1_545  S
H471        C698   1.088       .  S
O473        V481   1.960       .  S
O474        V481   1.962       .  S
O474        C712   1.287       .  A
O475        V481   1.969       .  S
O475        C713   1.277       .  A
O476        V481   1.969       .  S
O477        C486   1.237       .  A
O478        V710   1.854   1_545  S
O478        C485   1.236       .  A
O479        V710   1.838       .  S
O479        C484   1.241   1_565  A
O480        C483   1.242   1_455  A
V481        V482   2.001       .  T
V482        O706   1.854       .  S
V482        O707   1.838       .  S
C483        C496   1.472       .  S
C484        O702   1.287   1_545  A
C485        O703   1.277   1_545  A
C486        C487   1.514       .  S
C487        C488   1.445       .  A
C487        C492   1.401       .  A
C488        C489   1.388       .  A
C488        C545   1.479       .  S
C489        C490   1.408       .  A
C489        H494   1.085       .  S
C490        C491   1.457       .  A
C490        C640   1.513   1_554  S
C491        C492   1.418       .  A
C491        C645   1.505   1_554  S
C495        C496   1.443       .  A
C495        C500   1.401       .  A
C495        C544   1.515       .  S
C496        C497   1.387       .  A
C497        C498   1.401       .  A
C498        C499   1.455       .  A
C498        C670   1.500       .  S
C499        C500   1.421       .  A
C499        C681   1.513       .  S
C500        H501   1.083       .  S
C503        C504   1.442       .  A
C503        C508   1.402       .  A
C503        C543   1.510       .  S
C504        C505   1.386       .  A
C504        C529   1.475   1_655  S
C505        C506   1.401       .  A
C506        C507   1.454       .  A
C506        C649   1.499   1_554  S
C507        C508   1.417       .  A
C507        C656   1.506   1_554  S
C508        H737   1.085   1_545  S
H509        C736   1.085       .  S
C511        C512   1.443       .  A
C511        C516   1.387       .  A
C511        C546   1.474   1_545  S
C512        C513   1.400       .  A
C512        C532   1.511       .  S
C513        C514   1.417       .  A
C514        C515   1.455       .  A
C514        C672   1.503       .  S
C515        C516   1.402       .  A
C515        C664   1.502       .  S
C516        H745   1.087   1_545  S
H517        C744   1.087       .  S
O519        V527   1.960       .  S
O520        V527   1.971       .  S
O520        C530   1.288       .  A
O521        V527   1.972       .  S
O521        C531   1.277       .  A
O522        V527   1.969       .  S
O523        C532   1.239       .  A
O524        V528   1.868       .  S
O524        C531   1.237       .  A
O525        V528   1.844       .  S
O525        C530   1.239       .  A
O526        C529   1.245       .  A
V527        V528   1.994       .  T
O533        V769   1.858   1_545  S
O533        C543   1.239       .  A
O534        V541   1.869       .  S
O534        C544   1.238       .  A
O535        V541   1.844       .  S
O535        C545   1.240       .  A
O536        V769   1.846       .  S
O536        C546   1.244       .  A
O537        V542   1.961       .  S
O537        C774   1.287       .  A
O538        V542   1.970       .  S
O538        C545   1.288       .  A
O539        V542   1.971       .  S
O539        C544   1.278       .  A
O540        V542   1.969       .  S
O540        C771   1.280       .  A
V541        O761   1.858       .  S
V541        O764   1.846       .  S
V541        V542   1.993       .  T
C543        O768   1.280   1_545  A
C546        O765   1.287       .  A
C547        C548   1.444       .  A
C547        C552   1.401       .  A
C547        C589   1.515       .  S
C548        C549   1.387       .  A
C548        C622   1.472       .  S
C549        C550   1.401       .  A
C550        C551   1.455       .  A
C550        C648   1.500       .  S
C551        C552   1.421       .  A
C551        C637   1.513       .  S
C552        H553   1.083       .  S
C555        C556   1.443       .  A
C555        C560   1.387       .  A
C555        C591   1.474       .  S
C556        C557   1.400       .  A
C556        C635   1.511       .  S
C557        C558   1.417       .  A
C558        C559   1.455       .  A
C558        C646   1.503       .  S
C559        C560   1.402       .  A
C559        C653   1.502       .  S
C560        H789   1.087       .  S
H561        C788   1.087   1_545  S
C563        C564   1.446       .  A
C563        C568   1.401       .  A
C563        C620   1.514       .  S
C564        C565   1.388       .  A
C564        C633   1.480       .  S
C565        C566   1.408       .  A
C565        H570   1.085       .  S
C566        C567   1.455       .  A
C566        C641   1.511       .  S
C567        C568   1.418       .  A
C567        C657   1.506       .  S
C568        H797   1.086       .  S
H569        C796   1.086   1_545  S
C571        C572   1.442       .  A
C571        C576   1.386       .  A
C571        C634   1.475       .  S
C572        C573   1.402       .  A
C572        C590   1.510       .  S
C573        C574   1.417       .  A
C573        H806   1.085       .  S
C574        C575   1.454       .  A
C574        C661   1.506       .  S
C575        C576   1.401       .  A
C575        C669   1.499       .  S
H578        C801   1.085   1_545  S
O579        V587   1.869       .  S
O579        C589   1.238       .  A
O580        V815   1.858       .  S
O580        C590   1.239       .  A
O581        V815   1.846       .  S
O581        C591   1.244       .  A
O582        V587   1.844       .  S
O582        C592   1.240       .  A
O583        V588   1.970       .  S
O583        C592   1.288       .  A
O584        V588   1.960       .  S
O584        C819   1.287       .  A
O585        V588   1.969       .  S
O585        C818   1.280   1_545  A
O586        V588   1.972       .  S
O586        C589   1.278       .  A
V587        O808   1.858   1_545  S
V587        O809   1.846       .  S
V587        V588   1.993       .  T
C590        O813   1.280       .  A
C591        O812   1.287       .  A
C592        C594   1.479       .  S
C593        C594   1.445       .  A
C593        C598   1.401       .  A
C593        C619   1.514       .  S
C594        C595   1.388       .  A
C595        C596   1.408       .  A
C595        H600   1.085       .  S
C596        C597   1.457       .  A
C596        C678   1.513       .  S
C597        C598   1.418       .  A
C597        C673   1.505       .  S
C601        C602   1.445       .  A
C601        C606   1.386       .  A
C601        C621   1.472       .  S
C602        C603   1.401       .  A
C602        C636   1.516       .  S
C603        C604   1.421       .  A
C603        H608   1.083       .  S
C604        C605   1.454       .  A
C604        C680   1.512       .  S
C605        C606   1.402       .  A
C605        C665   1.501       .  S
C606        H835   1.088       .  S
H607        C834   1.088   1_545  S
O609        C619   1.237       .  A
O610        V845   1.854       .  S
O610        C620   1.236       .  A
O611        V845   1.838       .  S
O611        C621   1.241       .  A
O612        C622   1.242       .  A
O613        V618   1.960       .  S
O614        V618   1.962       .  S
O614        C849   1.287   1_545  A
O615        V618   1.969       .  S
O615        C848   1.277   1_545  A
O616        V618   1.969       .  S
V617        O838   1.854   1_545  S
V617        O839   1.838       .  S
V617        V618   2.001       .  T
C620        O843   1.277       .  A
C621        O842   1.287       .  A
O623        V631   1.972       .  S
O623        C633   1.288       .  A
O624        V631   1.960       .  S
O625        V631   1.969       .  S
O626        V631   1.972       .  S
O626        C636   1.277       .  A
O627        V632   1.868       .  S
O627        C636   1.237       .  A
O628        C635   1.239       .  A
O629        C634   1.245       .  A
O630        V632   1.844       .  S
O630        C633   1.239       .  A
V631        V632   1.994       .  T
C637        C638   1.440       .  A
C637        C642   1.409       .  A
C638        C639   1.411       .  A
C639        C640   1.410       .  A
C639        H644   1.064       .  S
C640        C641   1.447       .  A
C641        C642   1.412       .  A
C642        H643   1.064       .  S
C645        C650   1.407   1_556  A
C646        C647   1.408       .  A
C647        C648   1.405       .  A
C647        H652   1.076       .  S
C649        C650   1.408   1_556  A
C650        H651   1.075       .  S
C653        C882   1.440       .  A
C653        C658   1.406       .  A
C654        C881   1.440   1_545  A
C654        C655   1.405       .  A
C655        C656   1.405       .  A
C655        H660   1.068   1_556  S
C656        C885   1.439   1_545  A
C657        C884   1.439       .  A
C657        C658   1.406       .  A
C658        H659   1.068       .  S
C661        C890   1.439       .  A
C661        C666   1.405       .  A
C662        C889   1.440   1_545  A
C662        C663   1.406       .  A
C663        C664   1.406       .  A
C663        H668   1.068       .  S
C664        C893   1.440   1_545  A
C665        C892   1.440       .  A
C665        C666   1.405       .  A
C666        H667   1.068       .  S
C669        C674   1.408       .  A
C670        C671   1.405       .  A
C671        C672   1.408       .  A
C671        H676   1.075       .  S
C673        C674   1.407       .  A
C674        H675   1.075       .  S
C677        C678   1.447       .  A
C677        C682   1.412       .  A
C678        C679   1.410       .  A
C679        C680   1.411       .  A
C679        H684   1.064       .  S
C680        C681   1.440       .  A
C681        C682   1.409       .  A
C682        H683   1.064       .  S
C685        C686   1.446       .  A
C685        C690   1.400       .  A
C685        C713   1.514       .  S
C686        C687   1.388       .  A
C686        C758   1.480       .  S
C687        C688   1.408       .  A
C687        H692   1.085       .  S
C688        C689   1.455       .  A
C688        C905   1.511       .  S
C689        C690   1.418       .  A
C689        C890   1.506       .  S
C693        C694   1.445       .  A
C693        C698   1.386       .  A
C693        C712   1.472       .  S
C694        C695   1.401       .  A
C694        C759   1.517       .  S
C695        C696   1.421       .  A
C695        H700   1.083       .  S
C696        C697   1.454       .  A
C696        C866   1.512   1_554  S
C697        C698   1.402       .  A
C697        C882   1.502   1_554  S
O701        V709   1.960       .  S
O702        V709   1.962       .  S
O703        V709   1.969       .  S
O704        V709   1.969       .  S
O705        C714   1.237       .  A
O706        C713   1.236       .  A
O707        C712   1.241       .  A
O708        C711   1.242   1_455  A
V709        V710   2.001       .  T
C711        C724   1.472       .  S
C714        C715   1.514       .  S
C715        C716   1.445       .  A
C715        C720   1.401       .  A
C716        C717   1.388       .  A
C716        C773   1.479       .  S
C717        C718   1.408       .  A
C717        H722   1.085       .  S
C718        C719   1.457       .  A
C718        C868   1.513   1_554  S
C719        C720   1.417       .  A
C719        C873   1.505   1_554  S
C723        C724   1.444       .  A
C723        C728   1.401       .  A
C723        C772   1.515       .  S
C724        C725   1.387       .  A
C725        C726   1.401       .  A
C726        C727   1.455       .  A
C726        C898   1.500       .  S
C727        C728   1.421       .  A
C727        C909   1.513       .  S
C728        H729   1.083       .  S
C731        C732   1.442       .  A
C731        C736   1.402       .  A
C731        C771   1.510       .  S
C732        C733   1.386       .  A
C732        C757   1.475   1_655  S
C733        C734   1.401       .  A
C734        C735   1.454       .  A
C734        C877   1.499   1_554  S
C735        C736   1.417       .  A
C735        C884   1.506   1_554  S
C739        C740   1.443       .  A
C739        C744   1.387       .  A
C739        C774   1.474       .  S
C740        C741   1.400       .  A
C740        C760   1.511       .  S
C741        C742   1.417       .  A
C742        C743   1.455       .  A
C742        C900   1.503       .  S
C743        C744   1.402       .  A
C743        C892   1.502       .  S
O747        V755   1.960       .  S
O748        V755   1.972       .  S
O748        C758   1.288       .  A
O749        V755   1.973       .  S
O749        C759   1.277       .  A
O750        V755   1.969       .  S
O751        C760   1.239       .  A
O752        V756   1.868       .  S
O752        C759   1.237       .  A
O753        V756   1.844       .  S
O753        C758   1.239       .  A
O754        C757   1.245       .  A
V755        V756   1.994       .  T
O761        C771   1.239       .  A
O762        V769   1.869       .  S
O762        C772   1.238       .  A
O763        V769   1.844       .  S
O763        C773   1.240       .  A
O764        C774   1.244       .  A
O765        V770   1.961       .  S
O766        V770   1.970       .  S
O766        C773   1.288       .  A
O767        V770   1.972       .  S
O767        C772   1.278       .  A
O768        V770   1.969       .  S
V769        V770   1.993       .  T
C775        C776   1.444       .  A
C775        C780   1.401       .  A
C775        C817   1.516       .  S
C776        C777   1.387       .  A
C776        C850   1.472       .  S
C777        C778   1.401       .  A
C778        C779   1.455       .  A
C778        C876   1.500       .  S
C779        C780   1.421       .  A
C779        C865   1.513       .  S
C780        H781   1.083       .  S
C783        C784   1.443       .  A
C783        C788   1.387       .  A
C783        C819   1.474   1_565  S
C784        C785   1.400       .  A
C784        C863   1.511       .  S
C785        C786   1.417       .  A
C786        C787   1.455       .  A
C786        C874   1.503       .  S
C787        C788   1.402       .  A
C787        C881   1.502       .  S
C791        C792   1.446       .  A
C791        C796   1.401       .  A
C791        C848   1.514       .  S
C792        C793   1.388       .  A
C792        C861   1.480       .  S
C793        C794   1.408       .  A
C793        H798   1.085       .  S
C794        C795   1.455       .  A
C794        C869   1.511       .  S
C795        C796   1.418       .  A
C795        C885   1.506       .  S
C799        C800   1.442       .  A
C799        C804   1.386       .  A
C799        C862   1.475       .  S
C800        C801   1.402       .  A
C800        C818   1.510       .  S
C801        C802   1.417       .  A
C802        C803   1.454       .  A
C802        C889   1.506       .  S
C803        C804   1.401       .  A
C803        C897   1.499       .  S
O807        V815   1.869       .  S
O807        C817   1.238       .  A
O808        C818   1.239       .  A
O809        C819   1.244       .  A
O810        V815   1.844       .  S
O810        C820   1.240       .  A
O811        V816   1.970       .  S
O811        C820   1.288       .  A
O812        V816   1.961       .  S
O813        V816   1.969       .  S
O814        V816   1.972       .  S
O814        C817   1.278       .  A
V815        V816   1.993       .  T
C820        C822   1.479       .  S
C821        C822   1.445       .  A
C821        C826   1.401       .  A
C821        C847   1.514       .  S
C822        C823   1.388       .  A
C823        C824   1.408       .  A
C823        H828   1.085       .  S
C824        C825   1.456       .  A
C824        C906   1.513       .  S
C825        C826   1.417       .  A
C825        C901   1.505       .  S
C829        C830   1.445       .  A
C829        C834   1.386       .  A
C829        C849   1.472       .  S
C830        C831   1.401       .  A
C830        C864   1.516       .  S
C831        C832   1.421       .  A
C831        H836   1.083       .  S
C832        C833   1.454       .  A
C832        C908   1.512       .  S
C833        C834   1.402       .  A
C833        C893   1.501       .  S
O837        C847   1.237       .  A
O838        C848   1.236       .  A
O839        C849   1.241   1_545  A
O840        C850   1.242       .  A
O841        V846   1.960       .  S
O842        V846   1.962       .  S
O843        V846   1.969       .  S
O844        V846   1.969       .  S
V845        V846   2.001       .  T
O851        V859   1.972       .  S
O851        C861   1.288       .  A
O852        V859   1.960       .  S
O853        V859   1.969       .  S
O854        V859   1.972       .  S
O854        C864   1.277       .  A
O855        V860   1.868       .  S
O855        C864   1.237       .  A
O856        C863   1.239       .  A
O857        C862   1.245       .  A
O858        V860   1.844       .  S
O858        C861   1.239       .  A
V859        V860   1.994       .  T
C865        C866   1.440       .  A
C865        C870   1.409       .  A
C866        C867   1.411       .  A
C867        C868   1.410       .  A
C867        H872   1.064       .  S
C868        C869   1.447       .  A
C869        C870   1.412       .  A
C870        H871   1.064       .  S
C873        C878   1.407   1_556  A
C874        C875   1.408       .  A
C875        C876   1.405       .  A
C875        H880   1.076       .  S
C877        C878   1.408   1_556  A
C878        H879   1.075       .  S
C881        C886   1.406       .  A
C882        C883   1.405       .  A
C883        C884   1.405       .  A
C883        H888   1.068   1_556  S
C885        C886   1.406       .  A
C886        H887   1.068       .  S
C889        C894   1.405       .  A
C890        C891   1.406       .  A
C891        C892   1.406       .  A
C891        H896   1.068       .  S
C893        C894   1.405       .  A
C894        H895   1.067       .  S
C897        C902   1.408       .  A
C898        C899   1.405       .  A
C899        C900   1.408       .  A
C899        H904   1.075       .  S
C901        C902   1.407       .  A
C902        H903   1.075       .  S
C905        C906   1.447       .  A
C905        C910   1.412       .  A
C906        C907   1.410       .  A
C907        C908   1.411       .  A
C907        H912   1.064       .  S
C908        C909   1.440       .  A
C909        C910   1.409       .  A
C910        H911   1.064       .  S
