geometry optimzed in LAMMPS
_audit_creation_date              2020-11-30 
_audit_creation_method            'lammps2cif' 
_symmetry_space_group_name_H-M    'P1' 
_symmetry_Int_Tables_number       1 
_symmetry_cell_setting            triclinic 
loop_ 
_symmetry_equiv_pos_as_xyz 
  x,y,z 
_cell_length_a                    33.73666998 
_cell_length_b                    33.61373827545727 
_cell_length_c                    30.4615678896754 
_cell_angle_alpha                 90.22651007460702 
_cell_angle_beta                  90.40663267557443 
_cell_angle_gamma                 90.38732067956752 
loop_ 
_atom_site_label 
_atom_site_type_symbol 
_atom_site_fract_x 
_atom_site_fract_y 
_atom_site_fract_z 
_atom_site_charge 
In1        In  0.29252080  0.29348438  0.60643023     1.36900
C2          C  0.25014569  0.25164947  0.54718892     0.77800
O3          O  0.31307801  0.23097505  0.61885828    -0.60600
O4          O  0.32196146  0.27400297  0.66897563    -0.51600
C5          C  0.34662272  0.34858769  0.58227323     0.70500
O6          O  0.31035446  0.35627779  0.58687785    -0.46400
C7          C  0.23786545  0.32544721  0.65738088     0.75200
O8          O  0.27746028  0.27562949  0.53609346    -0.58300
O9          O  0.27293083  0.31996730  0.67010564    -0.48400
O10         O  0.24464105  0.24957595  0.58788772    -0.54700
C11         C  0.32397101  0.23805357  0.65773424     0.85400
O12         O  0.35443970  0.31198565  0.58454422    -0.56600
O13         O  0.23149563  0.31775706  0.61742696    -0.59900
In14       In  0.43299865  0.43499267  0.60403703     1.36900
C15         C  0.47607124  0.47808468  0.54729557     0.77800
O16         O  0.40544188  0.49505985  0.61530915    -0.60600
O17         O  0.41092435  0.45549532  0.66921793    -0.51600
C18         C  0.37772112  0.38007262  0.58136747     0.70500
O19         O  0.36999622  0.41653498  0.58560542    -0.46400
C20         C  0.48777058  0.40192929  0.65425922     0.75200
O21         O  0.45342338  0.44987790  0.53483771    -0.58300
O22         O  0.45251042  0.40621560  0.66632317    -0.48400
O23         O  0.47601943  0.48429931  0.58800098    -0.54700
C24         C  0.40156821  0.48958864  0.65602605     0.85400
O25         O  0.41426915  0.37255523  0.58246563    -0.56600
O26         O  0.49448774  0.41173882  0.61514131    -0.59900
In27       In  0.18495914  0.18414233  0.45693014     1.36900
C28         C  0.22660723  0.22762355  0.51565815     0.77800
O29         O  0.24626497  0.16046287  0.44774159    -0.60600
O30         O  0.20375795  0.15095319  0.39695512    -0.51600
C31         C  0.12852737  0.13203171  0.48129945     0.70500
O32         O  0.12153505  0.16831465  0.47449218    -0.46400
C33         C  0.15784533  0.23759991  0.40061051     0.75200
O34         O  0.20024715  0.20273151  0.52699207    -0.58300
O35         O  0.16475002  0.20229142  0.38960013    -0.48400
O36         O  0.23140204  0.23012453  0.47488423    -0.54700
C37         C  0.23937262  0.14879936  0.40904794     0.85400
O38         O  0.16488493  0.12353399  0.48128695    -0.56600
O39         O  0.16124195  0.24469508  0.44115432    -0.59900
In40       In  0.04117147  0.04675206  0.45973358     1.36900
C41         C  0.00024330  0.00220373  0.51712245     0.77800
O42         O  0.97815492  0.06596891  0.44965114    -0.60600
O43         O  0.02056178  0.07912930  0.40037098    -0.51600
C44         C  0.09681483  0.10132875  0.48197280     0.70500
O45         O  0.06056938  0.10960232  0.47837514    -0.46400
C46         C  0.07355951  0.49492322  0.40459152     0.75200
O47         O  0.01917073  0.03325250  0.52870943    -0.58300
O48         O  0.05429441  0.02503934  0.39177022    -0.48400
O49         O  0.00347523  0.99357016  0.47716733    -0.54700
C50         C  0.48477669  0.07924741  0.41174467     0.85400
O51         O  0.10390531  0.06460989  0.47996384    -0.56600
O52         O  0.07745252  0.99269850  0.44570536    -0.59900
C53         C  0.12398785  0.36953165  0.28269314    -0.02300
C54         C  0.11168090  0.36299896  0.78139469    -0.02300
C55         C  0.36339991  0.11714250  0.28119079    -0.02300
In56       In  0.18388890  0.04274617  0.96099168     1.36900
C57         C  0.22920871  0.00006102  0.01624797     0.77800
O58         O  0.16585691  0.97935927  0.94820804    -0.60600
O59         O  0.15278604  0.02268124  0.89988713    -0.51600
C60         C  0.12976989  0.09723960  0.98592285     0.70500
O61         O  0.16626310  0.10497569  0.98301217    -0.46400
C62         C  0.23563002  0.07640579  0.90782413     0.75200
O63         O  0.19636300  0.01484652  0.02770642    -0.58300
O64         O  0.20290625  0.06271142  0.89434307    -0.48400
O65         O  0.23918008  0.00836334  0.97769313    -0.54700
C66         C  0.15259140  0.48639457  0.91028342     0.85400
O67         O  0.12166272  0.06073461  0.98214739    -0.56600
O68         O  0.24052195  0.07602860  0.94895804    -0.59900
In69       In  0.04548167  0.18360184  0.96140713     1.36900
C70         C  0.00566257  0.22851103  0.01948267     0.77800
O71         O  0.06283996  0.24624143  0.94572590    -0.60600
O72         O  0.07767255  0.20133198  0.89995353    -0.51600
C73         C  0.09899261  0.12867190  0.98611434     0.70500
O74         O  0.10743110  0.16508796  0.98220214    -0.46400
C75         C  0.49025496  0.15063792  0.91035590     0.75200
O76         O  0.03526131  0.20765883  0.03070510    -0.58300
O77         O  0.02478446  0.15788682  0.89717989    -0.48400
O78         O  0.99638154  0.22547328  0.97957201    -0.54700
C79         C  0.07638731  0.23791732  0.90850051     0.85400
O80         O  0.06231480  0.12118193  0.98369741    -0.56600
O81         O  0.98480194  0.15717960  0.95063978    -0.59900
In82       In  0.44064994  0.29731213  0.10746645     1.36900
C83         C  0.48328168  0.25427275  0.04993040     0.77800
O84         O  0.49489405  0.33488862  0.12113923    -0.60600
O85         O  0.46226686  0.31312960  0.17515864    -0.51600
C86         C  0.38640044  0.35127522  0.08194673     0.70500
O87         O  0.37841510  0.31485756  0.08635358    -0.46400
C88         C  0.40667659  0.24178784  0.15630264     0.75200
O89         O  0.45239878  0.27308218  0.03883758    -0.58300
O90         O  0.40433144  0.27827053  0.16541201    -0.48400
O91         O  0.49304474  0.25885978  0.08953225    -0.54700
C92         C  0.49232398  0.33201473  0.16235405     0.85400
O93         O  0.42286793  0.35933096  0.08504570    -0.56600
O94         O  0.42354225  0.23412919  0.12054444    -0.59900
In95       In  0.30158002  0.43744586  0.10294062     1.36900
C96         C  0.25447177  0.47546203  0.04519141     0.77800
O97         O  0.25410000  0.39456782  0.12529330    -0.60600
O98         O  0.27988764  0.43406346  0.17195040    -0.51600
C99         C  0.35538397  0.38227157  0.08067796     0.70500
O100        O  0.31903496  0.37432792  0.08492176    -0.46400
C101        C  0.33591870  0.49527976  0.14819336     0.75200
O102        O  0.28847501  0.46284877  0.03492364    -0.58300
O103        O  0.34236268  0.45914538  0.15622446    -0.48400
O104        O  0.24392807  0.46619398  0.08323212    -0.54700
C105        C  0.25427615  0.40758162  0.16429208     0.85400
O106        O  0.36330765  0.41895794  0.08169212    -0.56600
O107        O  0.31560018  0.50163051  0.11411116    -0.59900
C108        C  0.36282788  0.11326226  0.78463597    -0.02300
C109        C  0.42176132  0.15804129  0.88271132    -0.21100
C110        C  0.45817942  0.13869272  0.88020325    -0.09100
C111        C  0.46449197  0.11098842  0.84663030     0.29700
C112        C  0.43433786  0.10225505  0.81630005    -0.21100
C113        C  0.39783724  0.12296119  0.81680196    -0.09100
C114        C  0.39221392  0.15086215  0.85137403     0.29700
F115        F  0.35815674  0.17195006  0.85440758    -0.19700
H116        H  0.41669938  0.18005319  0.90811248     0.18100
H117        H  0.44018681  0.07873931  0.79316632     0.18100
F118        F  0.99958368  0.09163826  0.84375836    -0.19600
C119        C  0.29121037  0.12444461  0.81467876    -0.21100
C120        C  0.32739290  0.10312748  0.81521758    -0.09100
C121        C  0.33235219  0.07402893  0.84842854     0.29700
C122        C  0.30290849  0.06711096  0.87936949    -0.21100
C123        C  0.26718760  0.08777891  0.87754409    -0.09100
C124        C  0.26109829  0.11599992  0.84463266     0.29700
F125        F  0.22640404  0.13612921  0.84214140    -0.19700
H126        H  0.28574045  0.14828292  0.79190683     0.18100
H127        H  0.30753122  0.04449383  0.90411019     0.18100
F128        F  0.36584605  0.05195526  0.85079127    -0.19600
C129        C  0.40582506  0.14719362  0.22130892    -0.21100
C130        C  0.37351121  0.15239971  0.25017361    -0.09100
C131        C  0.35035523  0.18729051  0.24481064     0.29700
C132        C  0.36128213  0.21630158  0.21422172    -0.21100
C133        C  0.39372071  0.21050724  0.18660003    -0.09100
C134        C  0.41566278  0.17549550  0.19003831     0.29700
F135        F  0.44781425  0.16927386  0.16439287    -0.19700
H136        H  0.42394447  0.12078796  0.22337595     0.18100
H137        H  0.34370179  0.24303157  0.21133529     0.18100
F138        F  0.31605047  0.19316340  0.26666023    -0.19600
C139        C  0.38213686  0.05032268  0.24358961    -0.21100
C140        C  0.35566681  0.08257699  0.24843286    -0.09100
C141        C  0.32490989  0.08643774  0.21686560     0.29700
C142        C  0.32037991  0.05889609  0.18305878    -0.21100
C143        C  0.34596203  0.02651965  0.17960473    -0.09100
C144        C  0.37700671  0.02236885  0.20996454     0.29700
F145        F  0.40332915  0.49241074  0.20600907    -0.19700
H146        H  0.40782465  0.04698171  0.26454776     0.18100
H147        H  0.29573879  0.06217848  0.16037517     0.18100
F148        F  0.29885376  0.11697269  0.21897267    -0.19600
C149        C  0.06528500  0.30425892  0.87675962    -0.21100
C150        C  0.08650654  0.26869834  0.87639795    -0.09100
C151        C  0.11479500  0.26225215  0.84378717     0.29700
C152        C  0.12242276  0.29162278  0.81258376    -0.21100
C153        C  0.10087496  0.32769542  0.81205476    -0.09100
C154        C  0.07193480  0.33317534  0.84506750     0.29700
F155        F  0.05044274  0.36712283  0.84728128    -0.19700
H156        H  0.04282196  0.30946838  0.90133746     0.18100
H157        H  0.14612103  0.28586125  0.78990442     0.18100
F158        F  0.13606771  0.22811959  0.84293407    -0.19600
C159        C  0.15118041  0.39047594  0.84642954    -0.21100
C160        C  0.12225349  0.39773758  0.81351098    -0.09100
C161        C  0.10151604  0.43445744  0.81590310     0.29700
C162        C  0.11173723  0.46292090  0.84749650    -0.21100
C163        C  0.14056221  0.45505872  0.87931734    -0.09100
C164        C  0.15981846  0.41832571  0.87913998     0.29700
F165        F  0.18796825  0.40977576  0.90969408    -0.19700
H166        H  0.16696268  0.36251739  0.84698354     0.18100
H167        H  0.09615979  0.49101546  0.84784414     0.18100
F168        F  0.06986667  0.44298388  0.79012681    -0.19600
C169        C  0.08860423  0.37470974  0.20647037    -0.21100
C170        C  0.08756585  0.36349447  0.25132025    -0.09100
C171        C  0.05078195  0.34941948  0.26737163     0.29700
C172        C  0.01942503  0.34050147  0.23851313    -0.21100
C173        C  0.02301405  0.34717125  0.19321532    -0.09100
C174        C  0.05732936  0.36596484  0.17776925     0.29700
F175        F  0.06119484  0.37528800  0.13467891    -0.19700
H176        H  0.11361504  0.39041386  0.19276026     0.18100
H177        H  0.49263000  0.32733494  0.25160090     0.18100
F178        F  0.04561742  0.34256869  0.31083632    -0.19600
C179        C  0.21843009  0.42002763  0.23403949    -0.21100
C180        C  0.22541649  0.39516261  0.19780957    -0.09100
C181        C  0.20300381  0.36022886  0.19297563     0.29700
C182        C  0.17288056  0.35157078  0.22266279    -0.21100
C183        C  0.16191685  0.37900582  0.25580909    -0.09100
C184        C  0.18718362  0.41233792  0.26278029     0.29700
F185        F  0.18315058  0.43708304  0.29767402    -0.19700
H186        H  0.23641019  0.44646305  0.23936707     0.18100
H187        H  0.15583464  0.32446277  0.21776938     0.18100
F188        F  0.20948295  0.33488414  0.15901781    -0.19600
C189        C  0.45897345  0.12364737  0.35393452    -0.21100
C190        C  0.45330877  0.09095646  0.38130923    -0.09100
C191        C  0.41966249  0.06686753  0.37581756     0.29700
C192        C  0.39248058  0.07506785  0.34249099    -0.21100
C193        C  0.39765052  0.10785018  0.31396516    -0.09100
C194        C  0.43121138  0.13292004  0.32148089     0.29700
F195        F  0.43710634  0.16749209  0.29973199    -0.19300
H196        H  0.98486475  0.14256194  0.35821101     0.18100
H197        H  0.36685300  0.05571907  0.33889947     0.18100
F198        F  0.41402461  0.03425660  0.40126542    -0.19600
C199        C  0.10392977  0.39533757  0.35998184    -0.21100
C200        C  0.11115720  0.40308712  0.31496989    -0.09100
C201        C  0.10239952  0.44182338  0.29967866     0.29700
C202        C  0.09097585  0.47184684  0.32896854    -0.21100
C203        C  0.08732930  0.46400174  0.37401054    -0.09100
C204        C  0.09339801  0.42530808  0.38908139     0.29700
F205        F  0.08709678  0.41572872  0.43175111    -0.19700
H206        H  0.10504999  0.36575339  0.37348668     0.18100
H207        H  0.08495885  0.50129988  0.31637383     0.18100
F208        F  0.10539297  0.45086800  0.25645033    -0.19600
C209        C  0.26574232  0.10693136  0.34857158    -0.21100
C210        C  0.27086402  0.13818406  0.37846955    -0.09100
C211        C  0.30451080  0.16252781  0.37585537     0.29700
C212        C  0.33226683  0.15622095  0.34308288    -0.21100
C213        C  0.32789084  0.12499123  0.31215266    -0.09100
C214        C  0.29444737  0.09921534  0.31680258     0.29700
F215        F  0.28993202  0.06515315  0.29329918    -0.19700
H216        H  0.23991131  0.08771844  0.35065543     0.18100
H217        H  0.35788832  0.17576980  0.34195636     0.18100
F218        F  0.30975853  0.19362780  0.40392015    -0.19600
C219        C  0.17210046  0.30404920  0.37112120    -0.21100
C220        C  0.15006915  0.26886068  0.36829747    -0.09100
C221        C  0.12376706  0.26316181  0.33295196     0.29700
C222        C  0.11673553  0.29417548  0.30329818    -0.21100
C223        C  0.13560997  0.33159351  0.30879814    -0.09100
C224        C  0.16623726  0.33440129  0.34092345     0.29700
F225        F  0.18809795  0.36815434  0.34592554    -0.19700
H226        H  0.19414970  0.30802732  0.39684859     0.18100
H227        H  0.09612588  0.28863576  0.27667237     0.18100
F228        F  0.10390954  0.22816632  0.32800641    -0.19600
C229        C  0.35897384  0.01429856  0.71617707    -0.21100
C230        C  0.38958832  0.02103063  0.68650286    -0.09100
C231        C  0.41144437  0.05644128  0.68902658     0.29700
C232        C  0.40309648  0.08449092  0.72148915    -0.21100
C233        C  0.37261450  0.07828191  0.75257799    -0.09100
C234        C  0.34957423  0.04275618  0.74798288     0.29700
F235        F  0.31663235  0.03550049  0.77187162    -0.19700
H236        H  0.34202404  0.48694001  0.71449168     0.18100
H237        H  0.42056981  0.11164428  0.72242192     0.18100
F238        F  0.44197640  0.06321415  0.66116718    -0.19600
C239        C  0.05573361  0.40906829  0.68352015    -0.21100
C240        C  0.01903061  0.38966855  0.68474697    -0.09100
C241        C  0.01127456  0.36219567  0.71803950     0.29700
C242        C  0.04041118  0.35345505  0.74918549    -0.21100
C243        C  0.07733996  0.37373786  0.74949207    -0.09100
C244        C  0.08420283  0.40201560  0.71580804     0.29700
F245        F  0.11854510  0.42327009  0.71444181    -0.19700
H246        H  0.06176791  0.43111925  0.65854186     0.18100
H247        H  0.03353053  0.33028916  0.77232853     0.18100
F248        F  0.47566258  0.34325472  0.72002377    -0.19600
C249        C  0.32403605  0.14183306  0.72031081    -0.21100
C250        C  0.35312109  0.14859714  0.75335116    -0.09100
C251        C  0.37390288  0.18562466  0.75223936     0.29700
C252        C  0.36418069  0.21440873  0.72101336    -0.21100
C253        C  0.33557392  0.20671012  0.68863447    -0.09100
C254        C  0.31579157  0.17000505  0.68820199     0.29700
F255        F  0.28726166  0.16185658  0.65775564    -0.19700
H256        H  0.30766546  0.11401209  0.71922401     0.18100
H257        H  0.37977404  0.24270069  0.72156079     0.18100
F258        F  0.40438904  0.19466961  0.77969486    -0.19600
C259        C  0.16959932  0.31753339  0.68477245    -0.21100
C260        C  0.20634314  0.33679054  0.68774117    -0.09100
C261        C  0.21366328  0.36357252  0.72216927     0.29700
C262        C  0.18391760  0.37221983  0.75231823    -0.21100
C263        C  0.14679275  0.35229643  0.75065998    -0.09100
C264        C  0.14060065  0.32422970  0.71623618     0.29700
F265        F  0.10602487  0.30350558  0.71265781    -0.19700
H266        H  0.16383723  0.29601743  0.65887755     0.18100
H267        H  0.19051896  0.39511791  0.77616286     0.18100
F268        F  0.24939718  0.38209757  0.72610637    -0.19600
In269      In  0.29257065  0.79343584  0.60648680     1.36900
C270        C  0.25010695  0.75172957  0.54726019     0.77800
O271        O  0.31351999  0.73102509  0.61873361    -0.60600
O272        O  0.32178287  0.77395029  0.66911348    -0.51600
C273        C  0.34669719  0.84851352  0.58236235     0.70500
O274        O  0.31045587  0.85622292  0.58712323    -0.46400
C275        C  0.23788226  0.82531940  0.65743615     0.75200
O276        O  0.27691921  0.77625667  0.53613360    -0.58300
O277        O  0.27289833  0.81968281  0.67023027    -0.48400
O278        O  0.24519758  0.74897044  0.58800365    -0.54700
C279        C  0.32410886  0.73805525  0.65773185     0.85400
O280        O  0.35450057  0.81190148  0.58452832    -0.56600
O281        O  0.23156538  0.81776976  0.61744342    -0.59900
In282      In  0.43289377  0.93503600  0.60400395     1.36900
C283        C  0.47584846  0.97815877  0.54727828     0.77800
O284        O  0.40531307  0.99507584  0.61517203    -0.60600
O285        O  0.41067492  0.95551150  0.66910235    -0.51600
C286        C  0.37776593  0.88001054  0.58138707     0.70500
O287        O  0.36997269  0.91645738  0.58561092    -0.46400
C288        C  0.48773692  0.90223352  0.65426717     0.75200
O289        O  0.45299605  0.95012944  0.53478085    -0.58300
O290        O  0.45242358  0.90626595  0.66626417    -0.48400
O291        O  0.47608891  0.98415022  0.58802436    -0.54700
C292        C  0.40136460  0.98960249  0.65587379     0.85400
O293        O  0.41433097  0.87254652  0.58243856    -0.56600
O294        O  0.49446813  0.91211861  0.61517774    -0.59900
In295      In  0.18501053  0.68438238  0.45686709     1.36900
C296        C  0.22650271  0.72783769  0.51569460     0.77800
O297        O  0.24651079  0.66124072  0.44771656    -0.60600
O298        O  0.20391812  0.65067518  0.39727596    -0.51600
C299        C  0.12851858  0.63227672  0.48107032     0.70500
O300        O  0.12147328  0.66850939  0.47399010    -0.46400
C301        C  0.15802344  0.73773170  0.40043958     0.75200
O302        O  0.20059448  0.70246145  0.52699564    -0.58300
O303        O  0.16560674  0.70259581  0.38932830    -0.48400
O304        O  0.23083495  0.73091443  0.47490724    -0.54700
C305        C  0.23960736  0.64906004  0.40922298     0.85400
O306        O  0.16489605  0.62387006  0.48136492    -0.56600
O307        O  0.16074037  0.74469081  0.44107335    -0.59900
In308      In  0.04150309  0.54660546  0.45966430     1.36900
C309        C  0.00055342  0.50207724  0.51713735     0.77800
O310        O  0.97846438  0.56554164  0.44929371    -0.60600
O311        O  0.02097029  0.57884516  0.40016495    -0.51600
C312        C  0.09689983  0.60147688  0.48176589     0.70500
O313        O  0.06062574  0.60960180  0.47810231    -0.46400
C314        C  0.07303194  0.99498444  0.40457224     0.75200
O315        O  0.01914219  0.53336790  0.52859112    -0.58300
O316        O  0.05449165  0.52475689  0.39177046    -0.48400
O317        O  0.00419762  0.49315757  0.47730342    -0.54700
C318        C  0.48515472  0.57886923  0.41142607     0.85400
O319        O  0.10413136  0.56478042  0.47989533    -0.56600
O320        O  0.07823823  0.49282064  0.44570958    -0.59900
C321        C  0.12381514  0.86963598  0.28270548    -0.02300
C322        C  0.11171750  0.86330539  0.78127829    -0.02300
C323        C  0.36358930  0.61731418  0.28130483    -0.02300
In324      In  0.18385390  0.54264617  0.96095106     1.36900
C325        C  0.22936641  0.49993295  0.01605508     0.77800
O326        O  0.16547363  0.47931513  0.94830791    -0.60600
O327        O  0.15278084  0.52254328  0.89977347    -0.51600
C328        C  0.12979115  0.59716860  0.98606149     0.70500
O329        O  0.16629797  0.60484894  0.98316989    -0.46400
C330        C  0.23561538  0.57657205  0.90795193     0.75200
O331        O  0.19689254  0.51533591  0.02782843    -0.58300
O332        O  0.20267298  0.56341382  0.89447892    -0.48400
O333        O  0.23885128  0.50750593  0.97715747    -0.54700
C334        C  0.15281438  0.98649989  0.91026581     0.85400
O335        O  0.12164401  0.56066853  0.98225053    -0.56600
O336        O  0.24072007  0.57553904  0.94902962    -0.59900
In337      In  0.04564134  0.68380491  0.96149949     1.36900
C338        C  0.00578555  0.72861740  0.01964858     0.77800
O339        O  0.06275864  0.74654763  0.94571978    -0.60600
O340        O  0.07789212  0.70166030  0.90008258    -0.51600
C341        C  0.09905454  0.62867418  0.98622543     0.70500
O342        O  0.10755343  0.66508601  0.98239209    -0.46400
C343        C  0.49032999  0.65091341  0.91045991     0.75200
O344        O  0.03568440  0.70814800  0.03076259    -0.58300
O345        O  0.02484599  0.65819928  0.89724989    -0.48400
O346        O  0.99624744  0.72522873  0.97984716    -0.54700
C347        C  0.07642204  0.73825515  0.90854052     0.85400
O348        O  0.06236638  0.62127198  0.98368509    -0.56600
O349        O  0.98493220  0.65737874  0.95076915    -0.59900
In350      In  0.44055592  0.79740588  0.10744666     1.36900
C351        C  0.48333501  0.75434814  0.05006681     0.77800
O352        O  0.49480005  0.83502061  0.12099716    -0.60600
O353        O  0.46207485  0.81353953  0.17507886    -0.51600
C354        C  0.38613948  0.85113310  0.08181595     0.70500
O355        O  0.37822183  0.81473169  0.08647813    -0.46400
C356        C  0.40668736  0.74192134  0.15637656     0.75200
O357        O  0.45240909  0.77306022  0.03891799    -0.58300
O358        O  0.40451047  0.77839430  0.16557952    -0.48400
O359        O  0.49305975  0.75901017  0.08967189    -0.54700
C360        C  0.49218965  0.83229935  0.16222203     0.85400
O361        O  0.42260376  0.85925923  0.08470348    -0.56600
O362        O  0.42336189  0.73424972  0.12050752    -0.59900
In363      In  0.30130224  0.93722240  0.10287360     1.36900
C364        C  0.25421122  0.97544574  0.04531147     0.77800
O365        O  0.25401502  0.89413300  0.12529569    -0.60600
O366        O  0.27936948  0.93414664  0.17172184    -0.51600
C367        C  0.35508528  0.88207727  0.08053065     0.70500
O368        O  0.31874605  0.87410505  0.08480619    -0.46400
C369        C  0.33577152  0.99483516  0.14833606     0.75200
O370        O  0.28826292  0.96297318  0.03506509    -0.58300
O371        O  0.34181200  0.95865980  0.15654186    -0.48400
O372        O  0.24355300  0.96588052  0.08322226    -0.54700
C373        C  0.25399603  0.90741201  0.16419253     0.85400
O374        O  0.36298654  0.91876402  0.08153673    -0.56600
O375        O  0.31583416  0.00129532  0.11400136    -0.59900
C376        C  0.36288658  0.61333798  0.78475863    -0.02300
C377        C  0.42177301  0.65824080  0.88284468    -0.21100
C378        C  0.45822782  0.63894984  0.88032585    -0.09100
C379        C  0.46456644  0.61126622  0.84674006     0.29700
C380        C  0.43441187  0.60246675  0.81643342    -0.21100
C381        C  0.39787685  0.62310499  0.81693987    -0.09100
C382        C  0.39222986  0.65102706  0.85149374     0.29700
F383        F  0.35816322  0.67210729  0.85448641    -0.19700
H384        H  0.41668665  0.68024514  0.90824705     0.18100
H385        H  0.44030222  0.57896954  0.79329124     0.18100
F386        F  0.99970347  0.59200904  0.84381727    -0.19600
C387        C  0.29124265  0.62458880  0.81476266    -0.21100
C388        C  0.32741945  0.60325004  0.81533236    -0.09100
C389        C  0.33237909  0.57424547  0.84863987     0.29700
C390        C  0.30291820  0.56735839  0.87956310    -0.21100
C391        C  0.26718146  0.58799457  0.87768063    -0.09100
C392        C  0.26112571  0.61621663  0.84475183     0.29700
F393        F  0.22648437  0.63644342  0.84230086    -0.19700
H394        H  0.28579376  0.64840501  0.79195557     0.18100
H395        H  0.30754284  0.54477148  0.90433702     0.18100
F396        F  0.36588666  0.55220245  0.85109744    -0.19600
C397        C  0.40593398  0.64737324  0.22138311    -0.21100
C398        C  0.37369069  0.65260191  0.25034158    -0.09100
C399        C  0.35055178  0.68751460  0.24506298     0.29700
C400        C  0.36139901  0.71648881  0.21440341    -0.21100
C401        C  0.39376567  0.71065913  0.18668913    -0.09100
C402        C  0.41571416  0.67565704  0.19008740     0.29700
F403        F  0.44783718  0.66944214  0.16439732    -0.19700
H404        H  0.42405347  0.62096553  0.22339980     0.18100
H405        H  0.34383099  0.74323085  0.21155898     0.18100
F406        F  0.31634823  0.69345951  0.26708159    -0.19600
C407        C  0.38236384  0.55066239  0.24342231    -0.21100
C408        C  0.35580452  0.58281716  0.24847617    -0.09100
C409        C  0.32502805  0.58674932  0.21694330     0.29700
C410        C  0.32049237  0.55929281  0.18304995    -0.21100
C411        C  0.34614468  0.52698552  0.17942268    -0.09100
C412        C  0.37730709  0.52286875  0.20963552     0.29700
F413        F  0.40283245  0.99171344  0.20664838    -0.19700
H414        H  0.40810686  0.54732040  0.26429788     0.18100
H415        H  0.29580923  0.56259310  0.16042711     0.18100
F416        F  0.29899737  0.61730166  0.21913109    -0.19600
C417        C  0.06535060  0.80466098  0.87678248    -0.21100
C418        C  0.08650864  0.76905152  0.87639681    -0.09100
C419        C  0.11473009  0.76256511  0.84371794     0.29700
C420        C  0.12232781  0.79189857  0.81246093    -0.21100
C421        C  0.10085715  0.82801479  0.81196203    -0.09100
C422        C  0.07199699  0.83356436  0.84505141     0.29700
F423        F  0.05063477  0.86759331  0.84733847    -0.19700
H424        H  0.04295832  0.80992914  0.90142303     0.18100
H425        H  0.14597166  0.78607991  0.78973125     0.18100
F426        F  0.13598914  0.72842621  0.84285088    -0.19600
C427        C  0.15116186  0.89058893  0.84642454    -0.21100
C428        C  0.12240553  0.89802192  0.81336769    -0.09100
C429        C  0.10193584  0.93490231  0.81560351     0.29700
C430        C  0.11225182  0.96331848  0.84718628    -0.21100
C431        C  0.14079358  0.95522949  0.87923905    -0.09100
C432        C  0.15973700  0.91833261  0.87925515     0.29700
F433        F  0.18745585  0.90946898  0.91017643    -0.19700
H434        H  0.16676015  0.86252809  0.84708068     0.18100
H435        H  0.09690811  0.99154535  0.84737937     0.18100
F436        F  0.07044782  0.94367163  0.78969609    -0.19600
C437        C  0.08867187  0.87453010  0.20630173    -0.21100
C438        C  0.08744975  0.86360580  0.25124209    -0.09100
C439        C  0.05054893  0.84984360  0.26727274     0.29700
C440        C  0.01916262  0.84108174  0.23839345    -0.21100
C441        C  0.02291393  0.84742890  0.19305240    -0.09100
C442        C  0.05744718  0.86576692  0.17755189     0.29700
F443        F  0.06160103  0.87457289  0.13436017    -0.19700
H444        H  0.11379142  0.89000278  0.19252805     0.18100
H445        H  0.49222301  0.82824036  0.25150168     0.18100
F446        F  0.04526269  0.84321670  0.31075988    -0.19600
C447        C  0.21819886  0.91999608  0.23390287    -0.21100
C448        C  0.22519290  0.89502014  0.19776169    -0.09100
C449        C  0.20287640  0.86000938  0.19311397     0.29700
C450        C  0.17280546  0.85140923  0.22287800    -0.21100
C451        C  0.16177166  0.87899808  0.25585411    -0.09100
C452        C  0.18698304  0.91237098  0.26268817     0.29700
F453        F  0.18292250  0.93720736  0.29749675    -0.19700
H454        H  0.23614034  0.94647460  0.23911915     0.18100
H455        H  0.15580371  0.82425331  0.21812507     0.18100
F456        F  0.20936468  0.83455902  0.15925210    -0.19600
C457        C  0.45944879  0.62332518  0.35361970    -0.21100
C458        C  0.45373199  0.59062393  0.38096684    -0.09100
C459        C  0.41996449  0.56669117  0.37559383     0.29700
C460        C  0.39268772  0.57507232  0.34242793    -0.21100
C461        C  0.39787909  0.60789750  0.31396986    -0.09100
C462        C  0.43158696  0.63279506  0.32134862     0.29700
F463        F  0.43754776  0.66737985  0.29964653    -0.19300
H464        H  0.98543281  0.64212403  0.35781585     0.18100
H465        H  0.36697334  0.55583058  0.33890556     0.18100
F466        F  0.41427016  0.53407956  0.40102490    -0.19600
C467        C  0.10381664  0.89548787  0.36001278    -0.21100
C468        C  0.11096464  0.90321056  0.31497329    -0.09100
C469        C  0.10202855  0.94189274  0.29964837     0.29700
C470        C  0.09040751  0.97187874  0.32890356    -0.21100
C471        C  0.08681226  0.96406648  0.37396390    -0.09100
C472        C  0.09313677  0.92542696  0.38907914     0.29700
F473        F  0.08701032  0.91585931  0.43178521    -0.19700
H474        H  0.10510144  0.86593808  0.37358373     0.18100
H475        H  0.08421933  0.00128046  0.31626824     0.18100
F476        F  0.10494798  0.95089473  0.25640293    -0.19600
C477        C  0.26595609  0.60718578  0.34874300    -0.21100
C478        C  0.27111502  0.63841857  0.37866320    -0.09100
C479        C  0.30481589  0.66269928  0.37608090     0.29700
C480        C  0.33259006  0.65633051  0.34333784    -0.21100
C481        C  0.32813519  0.62515984  0.31234657    -0.09100
C482        C  0.29463909  0.59945382  0.31695561     0.29700
F483        F  0.29003713  0.56545004  0.29337013    -0.19700
H484        H  0.24009066  0.58801647  0.35079618     0.18100
H485        H  0.35825786  0.67582029  0.34223874     0.18100
F486        F  0.31009062  0.69381788  0.40411681    -0.19600
C487        C  0.17217806  0.80418369  0.37097974    -0.21100
C488        C  0.15017752  0.76898528  0.36818346    -0.09100
C489        C  0.12373193  0.76329333  0.33297921     0.29700
C490        C  0.11649563  0.79434408  0.30344195    -0.21100
C491        C  0.13541511  0.83174087  0.30885832    -0.09100
C492        C  0.16615270  0.83456200  0.34086760     0.29700
F493        F  0.18797868  0.86834379  0.34583871    -0.19700
H494        H  0.19430839  0.80815074  0.39662481     0.18100
H495        H  0.09573267  0.78884003  0.27695340     0.18100
F496        F  0.10394585  0.72825520  0.32807279    -0.19600
C497        C  0.35926873  0.51421548  0.71648277    -0.21100
C498        C  0.38979014  0.52101075  0.68670081    -0.09100
C499        C  0.41157253  0.55647155  0.68918028     0.29700
C500        C  0.40316882  0.58455074  0.72160442    -0.21100
C501        C  0.37273631  0.57831172  0.75275240    -0.09100
C502        C  0.34986515  0.54265919  0.74831719     0.29700
F503        F  0.31714034  0.53518957  0.77248216    -0.19700
H504        H  0.34162780  0.98709284  0.71408376     0.18100
H505        H  0.42057793  0.61174634  0.72247232     0.18100
F506        F  0.44211228  0.56325785  0.66133623    -0.19600
C507        C  0.05565891  0.90961887  0.68361230    -0.21100
C508        C  0.01901387  0.89009897  0.68477747    -0.09100
C509        C  0.01135040  0.86247612  0.71793396     0.29700
C510        C  0.04048046  0.85377657  0.74908760    -0.21100
C511        C  0.07737629  0.87411075  0.74942144    -0.09100
C512        C  0.08420866  0.90244229  0.71577885     0.29700
F513        F  0.11856600  0.92367618  0.71438993    -0.19700
H514        H  0.06162055  0.93177056  0.65872065     0.18100
H515        H  0.03365379  0.83054059  0.77216748     0.18100
F516        F  0.47585953  0.84329055  0.71972272    -0.19600
C517        C  0.32412309  0.64185656  0.72036211    -0.21100
C518        C  0.35319470  0.64863938  0.75341500    -0.09100
C519        C  0.37400309  0.68565149  0.75226084     0.29700
C520        C  0.36429745  0.71441955  0.72101322    -0.21100
C521        C  0.33570756  0.70670723  0.68862441    -0.09100
C522        C  0.31590779  0.67001140  0.68821332     0.29700
F523        F  0.28738842  0.66186626  0.65775300    -0.19700
H524        H  0.30775074  0.61403534  0.71929664     0.18100
H525        H  0.37990067  0.74270651  0.72154166     0.18100
F526        F  0.40452374  0.69468169  0.77967531    -0.19600
C527        C  0.16956907  0.81759853  0.68473768    -0.21100
C528        C  0.20636122  0.83675146  0.68774067    -0.09100
C529        C  0.21370760  0.86358833  0.72210687     0.29700
C530        C  0.18395904  0.87235076  0.75220892    -0.21100
C531        C  0.14678238  0.85253181  0.75052283    -0.09100
C532        C  0.14053388  0.82446087  0.71611373     0.29700
F533        F  0.10588938  0.80386144  0.71249055    -0.19700
H534        H  0.16378520  0.79605657  0.65887452     0.18100
H535        H  0.19060049  0.89523446  0.77606201     0.18100
F536        F  0.24947194  0.88205802  0.72601759    -0.19600
In537      In  0.79252068  0.29348417  0.60643049     1.36900
C538        C  0.75014545  0.25164937  0.54718930     0.77800
O539        O  0.81307909  0.23097524  0.61885829    -0.60600
O540        O  0.82196011  0.27400282  0.66897656    -0.51600
C541        C  0.84662307  0.34858714  0.58227366     0.70500
O542        O  0.81035489  0.35627744  0.58687858    -0.46400
C543        C  0.73786472  0.32544694  0.65738034     0.75200
O544        O  0.77745810  0.27563153  0.53609363    -0.58300
O545        O  0.77293032  0.31996834  0.67010503    -0.48400
O546        O  0.74464299  0.24957340  0.58788832    -0.54700
C547        C  0.82397086  0.23805360  0.65773470     0.85400
O548        O  0.85443981  0.31198502  0.58454433    -0.56600
O549        O  0.73149487  0.31775547  0.61742674    -0.59900
In550      In  0.93299919  0.43499218  0.60403719     1.36900
C551        C  0.97607165  0.47808433  0.54729568     0.77800
O552        O  0.90544343  0.49505991  0.61530914    -0.60600
O553        O  0.91092394  0.45549495  0.66921772    -0.51600
C554        C  0.87772157  0.38007204  0.58136784     0.70500
O555        O  0.86999667  0.41653435  0.58560628    -0.46400
C556        C  0.98777114  0.40192879  0.65425927     0.75200
O557        O  0.95342263  0.44987852  0.53483767    -0.58300
O558        O  0.95251114  0.40621570  0.66632351    -0.48400
O559        O  0.97602118  0.48429783  0.58800131    -0.54700
C560        C  0.90156874  0.48958854  0.65602588     0.85400
O561        O  0.91426963  0.37255472  0.58246540    -0.56600
O562        O  0.99448812  0.41173767  0.61514112    -0.59900
In563      In  0.68495890  0.18414276  0.45693007     1.36900
C564        C  0.72660676  0.22762380  0.51565844     0.77800
O565        O  0.74626559  0.16046573  0.44774103    -0.60600
O566        O  0.70375790  0.15095178  0.39695626    -0.51600
C567        C  0.62852699  0.13203217  0.48129917     0.70500
O568        O  0.62153473  0.16831518  0.47449224    -0.46400
C569        C  0.65784502  0.23759982  0.40060996     0.75200
O570        O  0.70024848  0.20272982  0.52699230    -0.58300
O571        O  0.66475158  0.20229176  0.38959940    -0.48400
O572        O  0.73139965  0.23012703  0.47488442    -0.54700
C573        C  0.73937298  0.14880024  0.40904817     0.85400
O574        O  0.66488453  0.12353438  0.48128647    -0.56600
O575        O  0.66123980  0.24469469  0.44115402    -0.59900
In576      In  0.54117135  0.04675221  0.45973340     1.36900
C577        C  0.50024301  0.00220389  0.51712222     0.77800
O578        O  0.47815500  0.06596953  0.44965101    -0.60600
O579        O  0.52056183  0.07912902  0.40037050    -0.51600
C580        C  0.59681448  0.10132917  0.48197248     0.70500
O581        O  0.56056897  0.10960261  0.47837509    -0.46400
C582        C  0.57355911  0.49492317  0.40459129     0.75200
O583        O  0.51917164  0.03325183  0.52870946    -0.58300
O584        O  0.55429460  0.02503929  0.39177020    -0.48400
O585        O  0.50347364  0.99357116  0.47716673    -0.54700
C586        C  0.98477659  0.07924731  0.41174502     0.85400
O587        O  0.60390511  0.06461035  0.47996331    -0.56600
O588        O  0.57745235  0.99269847  0.44570551    -0.59900
C589        C  0.62398737  0.36953162  0.28269276    -0.02300
C590        C  0.61168042  0.36299873  0.78139428    -0.02300
C591        C  0.86340016  0.11714309  0.28119086    -0.02300
In592      In  0.68388955  0.04274702  0.96099171     1.36900
C593        C  0.72920950  0.00006194  0.01624788     0.77800
O594        O  0.66585810  0.97936007  0.94820768    -0.60600
O595        O  0.65278577  0.02268225  0.89988754    -0.51600
C596        C  0.62977068  0.09724045  0.98592313     0.70500
O597        O  0.66626376  0.10497680  0.98301136    -0.46400
C598        C  0.73563057  0.07640619  0.90782390     0.75200
O599        O  0.69636363  0.01484713  0.02770625    -0.58300
O600        O  0.70290668  0.06271196  0.89434301    -0.48400
O601        O  0.73918105  0.00836469  0.97769322    -0.54700
C602        C  0.65259093  0.48639397  0.91028333     0.85400
O603        O  0.62166374  0.06073533  0.98214877    -0.56600
O604        O  0.74052264  0.07602917  0.94895779    -0.59900
In605      In  0.54548159  0.18360168  0.96140705     1.36900
C606        C  0.50566241  0.22851056  0.01948278     0.77800
O607        O  0.56283889  0.24624142  0.94572536    -0.60600
O608        O  0.57767312  0.20133184  0.89995384    -0.51600
C609        C  0.59899311  0.12867249  0.98611461     0.70500
O610        O  0.60743122  0.16508862  0.98220217    -0.46400
C611        C  0.99025511  0.15063835  0.91035591     0.75200
O612        O  0.53526068  0.20765773  0.03070533    -0.58300
O613        O  0.52478453  0.15788559  0.89718010    -0.48400
O614        O  0.49638196  0.22547367  0.97957189    -0.54700
C615        C  0.57638700  0.23791724  0.90850035     0.85400
O616        O  0.56231536  0.12118212  0.98369783    -0.56600
O617        O  0.48480167  0.15717986  0.95063961    -0.59900
In618      In  0.94065040  0.29731283  0.10746640     1.36900
C619        C  0.98328196  0.25427340  0.04993024     0.77800
O620        O  0.99489436  0.33488982  0.12113909    -0.60600
O621        O  0.96226740  0.31313042  0.17515846    -0.51600
C622        C  0.88640050  0.35127543  0.08194649     0.70500
O623        O  0.87841542  0.31485774  0.08635361    -0.46400
C624        C  0.90667736  0.24178845  0.15630281     0.75200
O625        O  0.95239900  0.27308274  0.03883750    -0.58300
O626        O  0.90433186  0.27827118  0.16541195    -0.48400
O627        O  0.99304518  0.25886061  0.08953202    -0.54700
C628        C  0.99232444  0.33201570  0.16235390     0.85400
O629        O  0.92286794  0.35933144  0.08504531    -0.56600
O630        O  0.92354327  0.23412978  0.12054477    -0.59900
In631      In  0.80157976  0.43744556  0.10294028     1.36900
C632        C  0.75447124  0.47546162  0.04519128     0.77800
O633        O  0.75409988  0.39456735  0.12529285    -0.60600
O634        O  0.77988703  0.43406341  0.17194986    -0.51600
C635        C  0.85538383  0.38227154  0.08067764     0.70500
O636        O  0.81903489  0.37432765  0.08492173    -0.46400
C637        C  0.83591900  0.49527906  0.14819309     0.75200
O638        O  0.78847406  0.46284754  0.03492310    -0.58300
O639        O  0.84236229  0.45914460  0.15622447    -0.48400
O640        O  0.74392805  0.46619455  0.08323246    -0.54700
C641        C  0.75427568  0.40758144  0.16429152     0.85400
O642        O  0.86330729  0.41895797  0.08169145    -0.56600
O643        O  0.81560096  0.50163001  0.11411057    -0.59900
C644        C  0.86282846  0.11326211  0.78463581    -0.02300
C645        C  0.92176145  0.15804128  0.88271141    -0.21100
C646        C  0.95817966  0.13869294  0.88020330    -0.09100
C647        C  0.96449246  0.11098883  0.84663026     0.29700
C648        C  0.93433849  0.10225538  0.81629985    -0.21100
C649        C  0.89783773  0.12296125  0.81680184    -0.09100
C650        C  0.89221418  0.15086206  0.85137400     0.29700
F651        F  0.85815691  0.17194985  0.85440744    -0.19700
H652        H  0.91669938  0.18005309  0.90811261     0.18100
H653        H  0.94018765  0.07873987  0.79316596     0.18100
F654        F  0.49958305  0.09163759  0.84375837    -0.19600
C655        C  0.79121073  0.12444416  0.81467802    -0.21100
C656        C  0.82739345  0.10312734  0.81521733    -0.09100
C657        C  0.83235283  0.07402913  0.84842861     0.29700
C658        C  0.80290910  0.06711129  0.87936954    -0.21100
C659        C  0.76718808  0.08777900  0.87754372    -0.09100
C660        C  0.76109861  0.11599950  0.84463183     0.29700
F661        F  0.72640415  0.13612839  0.84214002    -0.19700
H662        H  0.78574066  0.14828218  0.79190582     0.18100
H663        H  0.80753191  0.04449446  0.90411056     0.18100
F664        F  0.86584677  0.05195558  0.85079163    -0.19600
C665        C  0.90582556  0.14719415  0.22130910    -0.21100
C666        C  0.87351162  0.15240028  0.25017369    -0.09100
C667        C  0.85035570  0.18729111  0.24481061     0.29700
C668        C  0.86128276  0.21630219  0.21422177    -0.21100
C669        C  0.89372145  0.21050786  0.18660023    -0.09100
C670        C  0.91566343  0.17549606  0.19003855     0.29700
F671        F  0.94781493  0.16927431  0.16439316    -0.19700
H672        H  0.92394490  0.12078849  0.22337617     0.18100
H673        H  0.84370240  0.24303219  0.21133525     0.18100
F674        F  0.81605082  0.19316401  0.26665997    -0.19600
C675        C  0.88213691  0.05032338  0.24358943    -0.21100
C676        C  0.85566688  0.08257765  0.24843292    -0.09100
C677        C  0.82490975  0.08643842  0.21686588     0.29700
C678        C  0.82037963  0.05889681  0.18305902    -0.21100
C679        C  0.84596182  0.02652046  0.17960467    -0.09100
C680        C  0.87700667  0.02236966  0.20996428     0.29700
F681        F  0.90332932  0.49240989  0.20600921    -0.19700
H682        H  0.90782482  0.04698240  0.26454747     0.18100
H683        H  0.79573835  0.06217918  0.16037553     0.18100
F684        F  0.79885360  0.11697333  0.21897327    -0.19600
C685        C  0.56528431  0.30425860  0.87675894    -0.21100
C686        C  0.58650616  0.26869820  0.87639765    -0.09100
C687        C  0.61479499  0.26225219  0.84378721     0.29700
C688        C  0.62242264  0.29162274  0.81258367    -0.21100
C689        C  0.60087453  0.32769518  0.81205430    -0.09100
C690        C  0.57193416  0.33317501  0.84506683     0.29700
F691        F  0.55044190  0.36712241  0.84728035    -0.19700
H692        H  0.54282103  0.30946796  0.90133654     0.18100
H693        H  0.64612118  0.28586138  0.78990454     0.18100
F694        F  0.63606814  0.22811990  0.84293461    -0.19600
C695        C  0.65118018  0.39047557  0.84642907    -0.21100
C696        C  0.62225312  0.39773725  0.81351065    -0.09100
C697        C  0.60151560  0.43445705  0.81590300     0.29700
C698        C  0.61173672  0.46292036  0.84749655    -0.21100
C699        C  0.64056171  0.45505810  0.87931733    -0.09100
C700        C  0.65981811  0.41832516  0.87913975     0.29700
F701        F  0.68796788  0.40977516  0.90969386    -0.19700
H702        H  0.66696259  0.36251707  0.84698281     0.18100
H703        H  0.59615923  0.49101490  0.84784434     0.18100
F704        F  0.56986617  0.44298354  0.79012681    -0.19600
C705        C  0.58860346  0.37470950  0.20647018    -0.21100
C706        C  0.58756527  0.36349433  0.25132007    -0.09100
C707        C  0.55078145  0.34941924  0.26737163     0.29700
C708        C  0.51942454  0.34050092  0.23851323    -0.21100
C709        C  0.52301351  0.34717050  0.19321539    -0.09100
C710        C  0.55732864  0.36596428  0.17776916     0.29700
F711        F  0.56119392  0.37528742  0.13467880    -0.19700
H712        H  0.61361415  0.39041379  0.19275995     0.18100
H713        H  0.99263041  0.32733556  0.25160071     0.18100
F714        F  0.54561708  0.34256849  0.31083635    -0.19600
C715        C  0.71842947  0.42002767  0.23403876    -0.21100
C716        C  0.72541585  0.39516259  0.19780888    -0.09100
C717        C  0.70300300  0.36022895  0.19297484     0.29700
C718        C  0.67287986  0.35157087  0.22266211    -0.21100
C719        C  0.66191625  0.37900586  0.25580850    -0.09100
C720        C  0.68718298  0.41233804  0.26277955     0.29700
F721        F  0.68314988  0.43708329  0.29767316    -0.19700
H722        H  0.73640960  0.44646306  0.23936632     0.18100
H723        H  0.65583387  0.32446284  0.21776872     0.18100
F724        F  0.70948194  0.33488439  0.15901684    -0.19600
C725        C  0.95897348  0.12364755  0.35393500    -0.21100
C726        C  0.95330866  0.09095658  0.38130962    -0.09100
C727        C  0.91966231  0.06686778  0.37581778     0.29700
C728        C  0.89248055  0.07506823  0.34249108    -0.21100
C729        C  0.89765067  0.10785059  0.31396530    -0.09100
C730        C  0.93121157  0.13292033  0.32148122     0.29700
F731        F  0.93710683  0.16749230  0.29973224    -0.19300
H732        H  0.48486469  0.14256184  0.35821041     0.18100
H733        H  0.86685293  0.05571952  0.33889941     0.18100
F734        F  0.91402424  0.03425682  0.40126555    -0.19600
C735        C  0.60392948  0.39533755  0.35998150    -0.21100
C736        C  0.61115676  0.40308709  0.31496954    -0.09100
C737        C  0.60239891  0.44182334  0.29967831     0.29700
C738        C  0.59097524  0.47184677  0.32896822    -0.21100
C739        C  0.58732877  0.46400168  0.37401022    -0.09100
C740        C  0.59339764  0.42530803  0.38908107     0.29700
F741        F  0.58709660  0.41572868  0.43175082    -0.19700
H742        H  0.60504988  0.36575338  0.37348635     0.18100
H743        H  0.58495817  0.50129984  0.31637351     0.18100
F744        F  0.60539223  0.45086794  0.25644996    -0.19600
C745        C  0.76574265  0.10693222  0.34857176    -0.21100
C746        C  0.77086430  0.13818506  0.37846955    -0.09100
C747        C  0.80451110  0.16252882  0.37585522     0.29700
C748        C  0.83226709  0.15622184  0.34308273    -0.21100
C749        C  0.82789114  0.12499197  0.31215271    -0.09100
C750        C  0.79444774  0.09921600  0.31680288     0.29700
F751        F  0.78993269  0.06515345  0.29330004    -0.19700
H752        H  0.73991170  0.08771920  0.35065580     0.18100
H753        H  0.85788859  0.17577073  0.34195608     0.18100
F754        F  0.80975895  0.19362881  0.40391993    -0.19600
C755        C  0.67210034  0.30404902  0.37112053    -0.21100
C756        C  0.65006888  0.26886058  0.36829695    -0.09100
C757        C  0.62376662  0.26316178  0.33295161     0.29700
C758        C  0.61673512  0.29417543  0.30329781    -0.21100
C759        C  0.63560962  0.33159345  0.30879768    -0.09100
C760        C  0.66623705  0.33440116  0.34092284     0.29700
F761        F  0.68809785  0.36815414  0.34592477    -0.19700
H762        H  0.69414972  0.30802703  0.39684780     0.18100
H763        H  0.59612536  0.28863572  0.27667210     0.18100
F764        F  0.60390884  0.22816641  0.32800630    -0.19600
C765        C  0.85897432  0.01429809  0.71617746    -0.21100
C766        C  0.88958837  0.02103025  0.68650276    -0.09100
C767        C  0.91144438  0.05644094  0.68902614     0.29700
C768        C  0.90309683  0.08449060  0.72148882    -0.21100
C769        C  0.87261510  0.07828161  0.75257799    -0.09100
C770        C  0.84957499  0.04275572  0.74798333     0.29700
F771        F  0.81663347  0.03549979  0.77187259    -0.19700
H772        H  0.84202356  0.48694039  0.71449037     0.18100
H773        H  0.92057009  0.11164401  0.72242129     0.18100
F774        F  0.94197602  0.06321385  0.66116621    -0.19600
C775        C  0.55573305  0.40906858  0.68352014    -0.21100
C776        C  0.51903000  0.38966894  0.68474693    -0.09100
C777        C  0.51127400  0.36219583  0.71803925     0.29700
C778        C  0.54041067  0.35345495  0.74918508    -0.21100
C779        C  0.57733946  0.37373775  0.74949174    -0.09100
C780        C  0.58420231  0.40201565  0.71580787     0.29700
F781        F  0.61854458  0.42327014  0.71444168    -0.19700
H782        H  0.56176738  0.43111964  0.65854196     0.18100
H783        H  0.53353006  0.33028888  0.77232788     0.18100
F784        F  0.97566313  0.34325457  0.72002411    -0.19600
C785        C  0.82403674  0.14183271  0.72031048    -0.21100
C786        C  0.85312161  0.14859694  0.75335099    -0.09100
C787        C  0.87390297  0.18562471  0.75223955     0.29700
C788        C  0.86418046  0.21440890  0.72101382    -0.21100
C789        C  0.83557386  0.20671014  0.68863482    -0.09100
C790        C  0.81579193  0.17000487  0.68820195     0.29700
F791        F  0.78726208  0.16185635  0.65775555    -0.19700
H792        H  0.80766645  0.11401158  0.71922343     0.18100
H793        H  0.87977344  0.24270102  0.72156153     0.18100
F794        F  0.90438896  0.19466987  0.77969521    -0.19600
C795        C  0.66959856  0.31753303  0.68477195    -0.21100
C796        C  0.70634231  0.33679036  0.68774044    -0.09100
C797        C  0.71366240  0.36357265  0.72216824     0.29700
C798        C  0.68391686  0.37221986  0.75231737    -0.21100
C799        C  0.64679213  0.35229623  0.75065943    -0.09100
C800        C  0.64059996  0.32422939  0.71623576     0.29700
F801        F  0.60602418  0.30350526  0.71265756    -0.19700
H802        H  0.66383646  0.29601695  0.65887719     0.18100
H803        H  0.69051817  0.39511810  0.77616183     0.18100
F804        F  0.74939612  0.38209812  0.72610486    -0.19600
In805      In  0.79257053  0.79343589  0.60648690     1.36900
C806        C  0.75010701  0.75172946  0.54726021     0.77800
O807        O  0.81351991  0.73102517  0.61873377    -0.60600
O808        O  0.82178272  0.77395035  0.66911365    -0.51600
C809        C  0.84669691  0.84851359  0.58236205     0.70500
O810        O  0.81045550  0.85622290  0.58712230    -0.46400
C811        C  0.73788229  0.82531966  0.65743644     0.75200
O812        O  0.77692074  0.77625498  0.53613376    -0.58300
O813        O  0.77289838  0.81968291  0.67023047    -0.48400
O814        O  0.74519594  0.74897213  0.58800356    -0.54700
C815        C  0.82410877  0.73805533  0.65773200     0.85400
O816        O  0.85450044  0.81190166  0.58452893    -0.56600
O817        O  0.73156537  0.81777014  0.61744367    -0.59900
In818      In  0.93289356  0.93503584  0.60400361     1.36900
C819        C  0.97584857  0.97815864  0.54727832     0.77800
O820        O  0.90531174  0.99507514  0.61517168    -0.60600
O821        O  0.91067570  0.95551138  0.66910233    -0.51600
C822        C  0.87776566  0.88001056  0.58138658     0.70500
O823        O  0.86997251  0.91645748  0.58560984    -0.46400
C824        C  0.98773682  0.90223348  0.65426678     0.75200
O825        O  0.95299753  0.95012820  0.53478089    -0.58300
O826        O  0.95242329  0.90626508  0.66626349    -0.48400
O827        O  0.97608743  0.98415123  0.58802418    -0.54700
C828        C  0.90136441  0.98960207  0.65587365     0.85400
O829        O  0.91433065  0.87254638  0.58243866    -0.56600
O830        O  0.99446817  0.91211932  0.61517762    -0.59900
In831      In  0.68501076  0.68438207  0.45686713     1.36900
C832        C  0.72650297  0.72783739  0.51569461     0.77800
O833        O  0.74651040  0.66123841  0.44771714    -0.60600
O834        O  0.70391836  0.65067657  0.39727494    -0.51600
C835        C  0.62851885  0.63227633  0.48107035     0.70500
O836        O  0.62147352  0.66850894  0.47398984    -0.46400
C837        C  0.65802387  0.73773185  0.40043990     0.75200
O838        O  0.70059290  0.70246301  0.52699559    -0.58300
O839        O  0.66560535  0.70259551  0.38932884    -0.48400
O840        O  0.73083719  0.73091210  0.47490732    -0.54700
C841        C  0.73960726  0.64905947  0.40922282     0.85400
O842        O  0.66489634  0.62386973  0.48136518    -0.56600
O843        O  0.66074253  0.74469134  0.44107346    -0.59900
In844      In  0.54150302  0.54660545  0.45966428     1.36900
C845        C  0.50055319  0.50207743  0.51713732     0.77800
O846        O  0.47846436  0.56554209  0.44929399    -0.60600
O847        O  0.52097010  0.57884490  0.40016484    -0.51600
C848        C  0.59690003  0.60147657  0.48176595     0.70500
O849        O  0.56062604  0.60960168  0.47810195    -0.46400
C850        C  0.57303201  0.99498437  0.40457236     0.75200
O851        O  0.51914134  0.53336849  0.52859091    -0.58300
O852        O  0.55449159  0.52475710  0.39177030    -0.48400
O853        O  0.50419816  0.49315719  0.47730364    -0.54700
C854        C  0.98515483  0.57886900  0.41142592     0.85400
O855        O  0.60413136  0.56478005  0.47989578    -0.56600
O856        O  0.57823766  0.49282037  0.44570936    -0.59900
C857        C  0.62381562  0.86963605  0.28270558    -0.02300
C858        C  0.61171761  0.86330586  0.78127881    -0.02300
C859        C  0.86358924  0.61731349  0.28130478    -0.02300
In860      In  0.68385348  0.54264559  0.96095080     1.36900
C861        C  0.72936583  0.49993237  0.01605487     0.77800
O862        O  0.66547231  0.47931465  0.94830821    -0.60600
O863        O  0.65278124  0.52254258  0.89977290    -0.51600
C864        C  0.62979065  0.59716805  0.98606106     0.70500
O865        O  0.66629756  0.60484821  0.98317012    -0.46400
C866        C  0.73561528  0.57657152  0.90795192     0.75200
O867        O  0.69689240  0.51533609  0.02782845    -0.58300
O868        O  0.70267304  0.56341302  0.89447873    -0.48400
O869        O  0.73885027  0.50750445  0.97715691    -0.54700
C870        C  0.65281481  0.98650080  0.91026580     0.85400
O871        O  0.62164332  0.56066809  0.98224929    -0.56600
O872        O  0.74071966  0.57553872  0.94902967    -0.59900
In873      In  0.54564134  0.68380505  0.96149966     1.36900
C874        C  0.50578573  0.72861793  0.01964850     0.77800
O875        O  0.56275852  0.74654777  0.94572004    -0.60600
O876        O  0.57789191  0.70166053  0.90008268    -0.51600
C877        C  0.59905425  0.62867385  0.98622525     0.70500
O878        O  0.60755341  0.66508559  0.98239176    -0.46400
C879        C  0.99032998  0.65091329  0.91045960     0.75200
O880        O  0.53568534  0.70814955  0.03076228    -0.58300
O881        O  0.52484573  0.65820023  0.89724990    -0.48400
O882        O  0.49624672  0.72522799  0.97984746    -0.54700
C883        C  0.57642183  0.73825536  0.90854074     0.85400
O884        O  0.56236600  0.62127198  0.98368531    -0.56600
O885        O  0.48493245  0.65737813  0.95076965    -0.59900
In886      In  0.94055549  0.79740525  0.10744669     1.36900
C887        C  0.98333470  0.75434741  0.05006698     0.77800
O888        O  0.99479988  0.83501952  0.12099712    -0.60600
O889        O  0.96207439  0.81353903  0.17507889    -0.51600
C890        C  0.88613942  0.85113301  0.08181610     0.70500
O891        O  0.87822151  0.81473163  0.08647812    -0.46400
C892        C  0.90668674  0.74192083  0.15637656     0.75200
O893        O  0.95240914  0.77305998  0.03891797    -0.58300
O894        O  0.90451082  0.77839374  0.16558010    -0.48400
O895        O  0.99305902  0.75900888  0.08967227    -0.54700
C896        C  0.99218933  0.83229857  0.16222201     0.85400
O897        O  0.92260376  0.85925883  0.08470378    -0.56600
O898        O  0.92336024  0.73424924  0.12050691    -0.59900
In899      In  0.80130257  0.93722291  0.10287351     1.36900
C900        C  0.75421190  0.97544646  0.04531126     0.77800
O901        O  0.75401506  0.89413374  0.12529546    -0.60600
O902        O  0.77936989  0.93414694  0.17172181    -0.51600
C903        C  0.85508548  0.88207748  0.08053076     0.70500
O904        O  0.81874611  0.87410554  0.08480563    -0.46400
C905        C  0.83577135  0.99483596  0.14833598     0.75200
O906        O  0.78826371  0.96297409  0.03506505    -0.58300
O907        O  0.84181194  0.95866062  0.15654183    -0.48400
O908        O  0.74355339  0.96588081  0.08322182    -0.54700
C909        C  0.75399628  0.90741249  0.16419241     0.85400
O910        O  0.86298702  0.91876416  0.08153743    -0.56600
O911        O  0.81583408  0.00129603  0.11400120    -0.59900
C912        C  0.86288640  0.61333777  0.78475847    -0.02300
C913        C  0.92177299  0.65824062  0.88284436    -0.21100
C914        C  0.95822784  0.63894973  0.88032544    -0.09100
C915        C  0.96456640  0.61126606  0.84673967     0.29700
C916        C  0.93441169  0.60246640  0.81643326    -0.21100
C917        C  0.89787666  0.62310461  0.81693975    -0.09100
C918        C  0.89222973  0.65102673  0.85149357     0.29700
F919        F  0.85816304  0.67210685  0.85448642    -0.19700
H920        H  0.91668665  0.68024497  0.90824668     0.18100
H921        H  0.94030197  0.57896907  0.79329116     0.18100
F922        F  0.49970345  0.59200905  0.84381782    -0.19600
C923        C  0.79124273  0.62458887  0.81476313    -0.21100
C924        C  0.82741929  0.60324971  0.81533223    -0.09100
C925        C  0.83237878  0.57424468  0.84863929     0.29700
C926        C  0.80291797  0.56735755  0.87956264    -0.21100
C927        C  0.76718146  0.58799417  0.87768075    -0.09100
C928        C  0.76112591  0.61621677  0.84475247     0.29700
F929        F  0.72648487  0.63644413  0.84230226    -0.19700
H930        H  0.78579400  0.64840548  0.79195642     0.18100
H931        H  0.80754247  0.54477029  0.90433619     0.18100
F932        F  0.86588619  0.55220138  0.85109636    -0.19600
C933        C  0.90593385  0.64737281  0.22138319    -0.21100
C934        C  0.87369055  0.65260132  0.25034165    -0.09100
C935        C  0.85055159  0.68751401  0.24506322     0.29700
C936        C  0.86139867  0.71648825  0.21440363    -0.21100
C937        C  0.89376521  0.71065862  0.18668919    -0.09100
C938        C  0.91571387  0.67565664  0.19008745     0.29700
F939        F  0.94783690  0.66944193  0.16439737    -0.19700
H940        H  0.92405346  0.62096515  0.22339986     0.18100
H941        H  0.84383062  0.74323029  0.21155929     0.18100
F942        F  0.81634819  0.69345895  0.26708210    -0.19600
C943        C  0.88236395  0.55066163  0.24342230    -0.21100
C944        C  0.85580462  0.58281645  0.24847605    -0.09100
C945        C  0.82502836  0.58674863  0.21694294     0.29700
C946        C  0.82049279  0.55929211  0.18304959    -0.21100
C947        C  0.84614503  0.52698476  0.17942248    -0.09100
C948        C  0.87730730  0.52286795  0.20963549     0.29700
F949        F  0.90283251  0.99171437  0.20664774    -0.19700
H950        H  0.90810688  0.54731962  0.26429798     0.18100
H951        H  0.79580976  0.56259244  0.16042661     0.18100
F952        F  0.79899774  0.61730103  0.21913049    -0.19600
C953        C  0.56535081  0.80466154  0.87678324    -0.21100
C954        C  0.58650847  0.76905183  0.87639713    -0.09100
C955        C  0.61472964  0.76256531  0.84371800     0.29700
C956        C  0.62232748  0.79189888  0.81246117    -0.21100
C957        C  0.60085721  0.82801533  0.81196265    -0.09100
C958        C  0.57199730  0.83356502  0.84505229     0.29700
F959        F  0.55063537  0.86759413  0.84733971    -0.19700
H960        H  0.54295877  0.80992980  0.90142396     0.18100
H961        H  0.64597110  0.78608004  0.78973121     0.18100
F962        F  0.63598825  0.72842614  0.84285047    -0.19600
C963        C  0.65116199  0.89058960  0.84642489    -0.21100
C964        C  0.62240570  0.89802252  0.81336799    -0.09100
C965        C  0.60193619  0.93490304  0.81560352     0.29700
C966        C  0.61225231  0.96331936  0.84718610    -0.21100
C967        C  0.64079401  0.95523041  0.87923897    -0.09100
C968        C  0.65973732  0.91833345  0.87925523     0.29700
F969        F  0.68745623  0.90946990  0.91017647    -0.19700
H970        H  0.66676016  0.86252867  0.84708122     0.18100
H971        H  0.59690872  0.99154628  0.84737900     0.18100
F972        F  0.57044820  0.94367234  0.78969603    -0.19600
C973        C  0.58867227  0.87453055  0.20630189    -0.21100
C974        C  0.58745023  0.86360596  0.25124216    -0.09100
C975        C  0.55054940  0.84984370  0.26727278     0.29700
C976        C  0.51916309  0.84108199  0.23839346    -0.21100
C977        C  0.52291429  0.84742951  0.19305247    -0.09100
C978        C  0.55744752  0.86576765  0.17755205     0.29700
F979        F  0.56160124  0.87457405  0.13436043    -0.19700
H980        H  0.61379183  0.89000334  0.19252828     0.18100
H981        H  0.99222254  0.82824024  0.25150172     0.18100
F982        F  0.54526317  0.84321666  0.31075989    -0.19600
C983        C  0.71819928  0.91999627  0.23390296    -0.21100
C984        C  0.72519322  0.89502051  0.19776161    -0.09100
C985        C  0.70287670  0.86000974  0.19311380     0.29700
C986        C  0.67280587  0.85140947  0.22287793    -0.21100
C987        C  0.66177214  0.87899819  0.25585419    -0.09100
C988        C  0.68698351  0.91237110  0.26268830     0.29700
F989        F  0.68292296  0.93720744  0.29749691    -0.19700
H990        H  0.73614082  0.94647478  0.23911933     0.18100
H991        H  0.65580408  0.82425354  0.21812492     0.18100
F992        F  0.70936483  0.83455957  0.15925172    -0.19600
C993        C  0.95944871  0.62332486  0.35361961    -0.21100
C994        C  0.95373211  0.59062350  0.38096660    -0.09100
C995        C  0.91996475  0.56669054  0.37559351     0.29700
C996        C  0.89268790  0.57507164  0.34242770    -0.21100
C997        C  0.89787909  0.60789691  0.31396974    -0.09100
C998        C  0.93158679  0.63279468  0.32134861     0.29700
F999        F  0.93754722  0.66737971  0.29964685    -0.19300
H1000       H  0.48543303  0.64212417  0.35781584     0.18100
H1001       H  0.86697359  0.55582977  0.33890530     0.18100
F1002       F  0.91427061  0.53407884  0.40102446    -0.19600
C1003       C  0.60381701  0.89548783  0.36001295    -0.21100
C1004       C  0.61096511  0.90321059  0.31497347    -0.09100
C1005       C  0.60202903  0.94189277  0.29964860     0.29700
C1006       C  0.59040792  0.97187874  0.32890379    -0.21100
C1007       C  0.58681247  0.96406641  0.37396409    -0.09100
C1008       C  0.59313687  0.92542688  0.38907929     0.29700
F1009       F  0.58700996  0.91585913  0.43178525    -0.19700
H1010       H  0.60510181  0.86593804  0.37358385     0.18100
H1011       H  0.58421977  0.00128046  0.31626850     0.18100
F1012       F  0.60494846  0.95089480  0.25640317    -0.19600
C1013       C  0.76595592  0.60718523  0.34874283    -0.21100
C1014       C  0.77111502  0.63841780  0.37866327    -0.09100
C1015       C  0.80481604  0.66269830  0.37608121     0.29700
C1016       C  0.83259018  0.65632957  0.34333811    -0.21100
C1017       C  0.82813516  0.62515911  0.31234659    -0.09100
C1018       C  0.79463885  0.59945332  0.31695534     0.29700
F1019       F  0.79003644  0.56544995  0.29336926    -0.19700
H1020       H  0.74009033  0.58801615  0.35079580     0.18100
H1021       H  0.85825808  0.67581926  0.34223917     0.18100
F1022       F  0.81009087  0.69381671  0.40411732    -0.19600
C1023       C  0.67217846  0.80418383  0.37097990    -0.21100
C1024       C  0.65017795  0.76898539  0.36818366    -0.09100
C1025       C  0.62373240  0.76329340  0.33297936     0.29700
C1026       C  0.61649609  0.79434414  0.30344206    -0.21100
C1027       C  0.63541559  0.83174093  0.30885839    -0.09100
C1028       C  0.66615314  0.83456208  0.34086769     0.29700
F1029       F  0.68797918  0.86834385  0.34583874    -0.19700
H1030       H  0.69430876  0.80815094  0.39662497     0.18100
H1031       H  0.59573312  0.78884008  0.27695351     0.18100
F1032       F  0.60394638  0.72825525  0.32807290    -0.19600
C1033       C  0.85926848  0.51421568  0.71648187    -0.21100
C1034       C  0.88979047  0.52101072  0.68670052    -0.09100
C1035       C  0.91157295  0.55647144  0.68918031     0.29700
C1036       C  0.90316894  0.58455069  0.72160433    -0.21100
C1037       C  0.87273611  0.57831170  0.75275196    -0.09100
C1038       C  0.84986466  0.54265945  0.74831616     0.29700
F1039       F  0.81713928  0.53519023  0.77248036    -0.19700
H1040       H  0.84162840  0.98709228  0.71408449     0.18100
H1041       H  0.92057813  0.61174619  0.72247252     0.18100
F1042       F  0.94211305  0.56325763  0.66133668    -0.19600
C1043       C  0.55565909  0.90961872  0.68361244    -0.21100
C1044       C  0.51901399  0.89009901  0.68477783    -0.09100
C1045       C  0.51135041  0.86247650  0.71793467     0.29700
C1046       C  0.54048043  0.85377716  0.74908840    -0.21100
C1047       C  0.57737635  0.87411115  0.74942198    -0.09100
C1048       C  0.58420881  0.90244238  0.71577906     0.29700
F1049       F  0.61856625  0.92367610  0.71438985    -0.19700
H1050       H  0.56162081  0.93177021  0.65872050     0.18100
H1051       H  0.53365363  0.83054144  0.77216863     0.18100
F1052       F  0.97585962  0.84328994  0.71972175    -0.19600
C1053       C  0.82412266  0.64185674  0.72036240    -0.21100
C1054       C  0.85319453  0.64863932  0.75341505    -0.09100
C1055       C  0.87400319  0.68565129  0.75226074     0.29700
C1056       C  0.86429761  0.71441942  0.72101316    -0.21100
C1057       C  0.83570748  0.70670730  0.68862454    -0.09100
C1058       C  0.81590745  0.67001160  0.68821362     0.29700
F1059       F  0.78738795  0.66186663  0.65775340    -0.19700
H1060       H  0.80775009  0.61403564  0.71929706     0.18100
H1061       H  0.87990106  0.74270627  0.72154145     0.18100
F1062       F  0.90452407  0.69468121  0.77967500    -0.19600
C1063       C  0.66956900  0.81759913  0.68473795    -0.21100
C1064       C  0.70636130  0.83675174  0.68774108    -0.09100
C1065       C  0.71370787  0.86358830  0.72210755     0.29700
C1066       C  0.68395934  0.87235083  0.75220960    -0.21100
C1067       C  0.64678251  0.85253217  0.75052336    -0.09100
C1068       C  0.64053387  0.82446144  0.71611407     0.29700
F1069       F  0.60588925  0.80386221  0.71249076    -0.19700
H1070       H  0.66378496  0.79605737  0.65887460     0.18100
H1071       H  0.69060099  0.89523434  0.77606286     0.18100
F1072       F  0.74947242  0.88205754  0.72601860    -0.19600
loop_ 
_geom_bond_atom_site_label_1 
_geom_bond_atom_site_label_2 
_geom_bond_distance 
_geom_bond_site_symmetry_2 
_ccdc_geom_bond_type 
In1           O3   2.250       .  S
In1           O4   2.244       .  S
In1          O12   2.280       .  S
In1           O6   2.274       .  S
In1           O8   2.276       .  S
In1           O9   2.237       .  S
In1          O10   2.248       .  S
In1          O13   2.247       .  S
C2            O8   1.269       .  A
C2           O10   1.257       .  A
C2           C28   1.476       .  S
O3           C11   1.259       .  A
O4           C11   1.257       .  A
C5           O12   1.262       .  A
C5            O6   1.261       .  A
C5           C18   1.486       .  S
C7            O9   1.257       .  A
C7           O13   1.260       .  A
C7          C260   1.466       .  S
C11         C253   1.469       .  S
In14         O16   2.255       .  S
In14         O17   2.234       .  S
In14         O25   2.281       .  S
In14         O19   2.276       .  S
In14         O21   2.279       .  S
In14         O22   2.230       .  S
In14         O23   2.253       .  S
In14         O26   2.246       .  S
C15          O21   1.269       .  A
C15          O23   1.257       .  A
C15         C845   1.478       .  S
O16          C24   1.262       .  A
O17          C24   1.257       .  A
C18          O25   1.261       .  A
C18          O19   1.261       .  A
C20          O22   1.257       .  A
C20          O26   1.259       .  A
C20         C776   1.463       .  S
C24         C498   1.466       .  S
In27         O29   2.240       .  S
In27         O30   2.235       .  S
In27         O38   2.272       .  S
In27         O32   2.270       .  S
In27         O34   2.276       .  S
In27         O35   2.245       .  S
In27         O36   2.256       .  S
In27         O39   2.245       .  S
C28          O34   1.268       .  A
C28          O36   1.257       .  A
O29          C37   1.260       .  A
O30          C37   1.257       .  A
C31          O38   1.261       .  A
C31          O32   1.261       .  A
C31          C44   1.482       .  S
C33          O35   1.256       .  A
C33          O39   1.261       .  A
C33         C220   1.466       .  S
C37         C210   1.463       .  S
In40         O42   2.245   1_455  S
In40         O43   2.224       .  S
In40         O51   2.276       .  S
In40         O45   2.276       .  S
In40         O47   2.280       .  S
In40         O48   2.241       .  S
In40         O49   2.254   1_545  S
In40         O52   2.239   1_545  S
C41          O47   1.267       .  A
C41          O49   1.256   1_545  A
C41         C819   1.477   1_445  S
O42         C586   1.260       .  A
O43         C586   1.258   1_455  A
C44          O51   1.260       .  A
C44          O45   1.260       .  A
C46         O316   1.257       .  A
C46         O320   1.264       .  A
C46         C203   1.473       .  S
O48         C314   1.257   1_545  A
C50         O578   1.260       .  A
C50         O579   1.258       .  A
C50         C190   1.462       .  S
O52         C314   1.263       .  A
C53         C170   1.563       .  S
C53         C183   1.556       .  S
C53         C200   1.559       .  S
C53         C223   1.556       .  S
C54         C153   1.556       .  S
C54         C160   1.558       .  S
C54         C243   1.552       .  S
C54         C263   1.558       .  S
C55         C130   1.556       .  S
C55         C140   1.548       .  S
C55         C193   1.556       .  S
C55         C213   1.553       .  S
In56         O58   2.244   1_545  S
In56         O59   2.230       .  S
In56         O67   2.285       .  S
In56         O61   2.278       .  S
In56         O63   2.279   1_556  S
In56         O64   2.238       .  S
In56         O65   2.257       .  S
In56         O68   2.241       .  S
C57          O63   1.268       .  A
C57          O65   1.256   1_554  A
C57         C364   1.478   1_545  S
O58         C334   1.258       .  A
O59         C334   1.258   1_545  A
C60          O67   1.260       .  A
C60          O61   1.260       .  A
C60          C73   1.486       .  S
C62          O64   1.259       .  A
C62          O68   1.263       .  A
C62         C123   1.463       .  S
C66         O326   1.258       .  A
C66         O327   1.258       .  A
C66         C163   1.465       .  S
In69         O71   2.236       .  S
In69         O72   2.251       .  S
In69         O80   2.282       .  S
In69         O74   2.271       .  S
In69         O76   2.287   1_556  S
In69         O77   2.241       .  S
In69         O78   2.252   1_455  S
In69         O81   2.247   1_455  S
C70          O76   1.270       .  A
C70          O78   1.257   1_454  A
C70         C619   1.481   1_455  S
O71          C79   1.257       .  A
O72          C79   1.257       .  A
C73          O80   1.263       .  A
C73          O74   1.261       .  A
C75         O613   1.257       .  A
C75         O617   1.261       .  A
C75         C110   1.467       .  S
O77         C611   1.257   1_455  A
C79         C150   1.467       .  S
O81         C611   1.261       .  A
In82         O84   2.252       .  S
In82         O85   2.243       .  S
In82         O93   2.279       .  S
In82         O87   2.274       .  S
In82         O89   2.279       .  S
In82         O90   2.248       .  S
In82         O91   2.266       .  S
In82         O94   2.235       .  S
C83          O89   1.267       .  A
C83          O91   1.257       .  A
C83         C606   1.481       .  S
O84          C92   1.263       .  A
O85          C92   1.258       .  A
C86          O93   1.261       .  A
C86          O87   1.260       .  A
C86          C99   1.482       .  S
C88          O90   1.259       .  A
C88          O94   1.259       .  A
C88         C133   1.468       .  S
C92         C709   1.480       .  S
In95         O97   2.258       .  S
In95         O98   2.234       .  S
In95        O106   2.275       .  S
In95        O100   2.272       .  S
In95        O102   2.285       .  S
In95        O103   2.237       .  S
In95        O104   2.256       .  S
In95        O107   2.230       .  S
C96         O102   1.267       .  A
C96         O104   1.254       .  A
C96         C325   1.479       .  S
O97         C105   1.264       .  A
O98         C105   1.256       .  A
C99         O106   1.260       .  A
C99         O100   1.261       .  A
C101        O103   1.260       .  A
C101        O107   1.260       .  A
C101        C411   1.464       .  S
C105        C180   1.475       .  S
C108        C113   1.561       .  S
C108        C120   1.557       .  S
C108        C233   1.564       .  S
C108        C250   1.561       .  S
C109        C110   1.396       .  A
C109        C114   1.394       .  A
C109        H116   1.084       .  S
C110        C111   1.399       .  A
C111        C112   1.398       .  A
C111        F654   1.358       .  S
C112        C113   1.419       .  A
C112        H117   1.077       .  S
C113        C114   1.422       .  A
C114        F115   1.358       .  S
F118        C647   1.358       .  S
C119        C120   1.420       .  A
C119        C124   1.399       .  A
C119        H126   1.078       .  S
C120        C121   1.420       .  A
C121        C122   1.393       .  A
C121        F128   1.358       .  S
C122        C123   1.396       .  A
C122        H127   1.084       .  S
C123        C124   1.398       .  A
C124        F125   1.358       .  S
C129        C130   1.417       .  A
C129        C134   1.389       .  A
C129        H136   1.083       .  S
C130        C131   1.423       .  A
C131        C132   1.401       .  A
C131        F138   1.354       .  S
C132        C133   1.399       .  A
C132        H137   1.083       .  S
C133        C134   1.398       .  A
C134        F135   1.358       .  S
C139        C140   1.417       .  A
C139        C144   1.396       .  A
C139        H146   1.079       .  S
C140        C141   1.417       .  A
C141        C142   1.389       .  A
C141        F148   1.357       .  S
C142        C143   1.398       .  A
C142        H147   1.084       .  S
C143        C369   1.464   1_545  S
C143        C144   1.400       .  A
C144        F413   1.358   1_545  S
F145        C412   1.358       .  S
C149        C150   1.398       .  A
C149        C154   1.391       .  A
C149        H156   1.084       .  S
C150        C151   1.400       .  A
C151        C152   1.397       .  A
C151        F158   1.358       .  S
C152        C153   1.418       .  A
C152        H157   1.078       .  S
C153        C154   1.419       .  A
C154        F155   1.358       .  S
C159        C160   1.417       .  A
C159        C164   1.392       .  A
C159        H166   1.083       .  S
C160        C161   1.425       .  A
C161        C162   1.394       .  A
C161        F168   1.354       .  S
C162        C163   1.395       .  A
C162        H167   1.084       .  S
C163        C164   1.399       .  A
C164        F165   1.358       .  S
C169        C170   1.419       .  A
C169        C174   1.395       .  A
C169        H176   1.080       .  S
C170        C171   1.416       .  A
C171        C172   1.401       .  A
C171        F178   1.357       .  S
C172        C173   1.405       .  A
C172        H713   1.083   1_455  S
C173        C628   1.480   1_455  S
C173        C174   1.400       .  A
C174        F175   1.358       .  S
H177        C708   1.083       .  S
C179        C180   1.404       .  A
C179        C184   1.398       .  A
C179        H186   1.084       .  S
C180        C181   1.399       .  A
C181        C182   1.395       .  A
C181        F188   1.357       .  S
C182        C183   1.417       .  A
C182        H187   1.083       .  S
C183        C184   1.418       .  A
C184        F185   1.355       .  S
C189        C190   1.395       .  A
C189        C194   1.395       .  A
C189        H732   1.084       .  S
C190        C191   1.399       .  A
C191        C192   1.393       .  A
C191        F198   1.358       .  S
C192        C193   1.417       .  A
C192        H197   1.083       .  S
C193        C194   1.424       .  A
C194        F195   1.354       .  S
H196        C725   1.084       .  S
C199        C200   1.419       .  A
C199        C204   1.389       .  A
C199        H206   1.078       .  S
C200        C201   1.417       .  A
C201        C202   1.402       .  A
C201        F208   1.357       .  S
C202        C203   1.404       .  A
C202        H207   1.083       .  S
C203        C204   1.397       .  A
C204        F205   1.358       .  S
C209        C210   1.397       .  A
C209        C214   1.399       .  A
C209        H216   1.084       .  S
C210        C211   1.398       .  A
C211        C212   1.390       .  A
C211        F218   1.358       .  S
C212        C213   1.414       .  A
C212        H217   1.083       .  S
C213        C214   1.426       .  A
C214        F215   1.355       .  S
C219        C220   1.395       .  A
C219        C224   1.391       .  A
C219        H226   1.084       .  S
C220        C221   1.402       .  A
C221        C222   1.402       .  A
C221        F228   1.357       .  S
C222        C223   1.415       .  A
C222        H227   1.079       .  S
C223        C224   1.420       .  A
C224        F225   1.357       .  S
C229        C230   1.395       .  A
C229        C234   1.398       .  A
C229        H504   1.084   1_545  S
C230        C292   1.465   1_545  S
C230        C231   1.397       .  A
C231        C232   1.395       .  A
C231        F238   1.358       .  S
C232        C233   1.418       .  A
C232        H237   1.083       .  S
C233        C234   1.426       .  A
C234        F235   1.354       .  S
H236        C497   1.084       .  S
C239        C240   1.396       .  A
C239        C244   1.392       .  A
C239        H246   1.084       .  S
C240        C556   1.463   1_455  S
C240        C241   1.399       .  A
C241        C242   1.395       .  A
C241        F784   1.358   1_455  S
C242        C243   1.416       .  A
C242        H247   1.078       .  S
C243        C244   1.421       .  A
C244        F245   1.358       .  S
F248        C777   1.358       .  S
C249        C250   1.417       .  A
C249        C254   1.392       .  A
C249        H256   1.083       .  S
C250        C251   1.425       .  A
C251        C252   1.398       .  A
C251        F258   1.353       .  S
C252        C253   1.397       .  A
C252        H257   1.084       .  S
C253        C254   1.399       .  A
C254        F255   1.358       .  S
C259        C260   1.397       .  A
C259        C264   1.393       .  A
C259        H266   1.084       .  S
C260        C261   1.399       .  A
C261        C262   1.396       .  A
C261        F268   1.357       .  S
C262        C263   1.417       .  A
C262        H267   1.077       .  S
C263        C264   1.421       .  A
C264        F265   1.358       .  S
In269       O271   2.250       .  S
In269       O272   2.243       .  S
In269       O280   2.281       .  S
In269       O274   2.272       .  S
In269       O276   2.275       .  S
In269       O277   2.236       .  S
In269       O278   2.248       .  S
In269       O281   2.246       .  S
C270        O276   1.269       .  A
C270        O278   1.257       .  A
C270        C296   1.476       .  S
O271        C279   1.259       .  A
O272        C279   1.257       .  A
C273        O280   1.262       .  A
C273        O274   1.261       .  A
C273        C286   1.485       .  S
C275        O277   1.257       .  A
C275        O281   1.260       .  A
C275        C528   1.465       .  S
C279        C521   1.469       .  S
In282       O284   2.254       .  S
In282       O285   2.233       .  S
In282       O293   2.281       .  S
In282       O287   2.274       .  S
In282       O289   2.278       .  S
In282       O290   2.230       .  S
In282       O291   2.252       .  S
In282       O294   2.245       .  S
C283        O289   1.269       .  A
C283        O291   1.257       .  A
C283        C577   1.477   1_565  S
O284        C292   1.262       .  A
O285        C292   1.257       .  A
C286        O293   1.261       .  A
C286        O287   1.261       .  A
C288        O290   1.257       .  A
C288        O294   1.259       .  A
C288       C1044   1.462       .  S
In295       O297   2.240       .  S
In295       O298   2.235       .  S
In295       O306   2.271       .  S
In295       O300   2.270       .  S
In295       O302   2.276       .  S
In295       O303   2.243       .  S
In295       O304   2.255       .  S
In295       O307   2.244       .  S
C296        O302   1.268       .  A
C296        O304   1.257       .  A
O297        C305   1.260       .  A
O298        C305   1.257       .  A
C299        O306   1.261       .  A
C299        O300   1.262       .  A
C299        C312   1.482       .  S
C301        O303   1.256       .  A
C301        O307   1.261       .  A
C301        C488   1.465       .  S
C305        C478   1.463       .  S
In308       O310   2.245   1_455  S
In308       O311   2.224       .  S
In308       O319   2.276       .  S
In308       O313   2.277       .  S
In308       O315   2.281       .  S
In308       O316   2.239       .  S
In308       O317   2.255       .  S
In308       O320   2.240       .  S
C309        O315   1.267       .  A
C309        O317   1.256       .  A
C309        C551   1.478   1_455  S
O310        C854   1.260       .  A
O311        C854   1.258   1_455  A
C312        O319   1.260       .  A
C312        O313   1.260       .  A
C314        C471   1.473       .  S
C318        O846   1.260       .  A
C318        O847   1.258       .  A
C318        C458   1.461       .  S
C321        C438   1.563       .  S
C321        C451   1.555       .  S
C321        C468   1.559       .  S
C321        C491   1.556       .  S
C322        C421   1.557       .  S
C322        C428   1.558       .  S
C322        C511   1.552       .  S
C322        C531   1.558       .  S
C323        C398   1.556       .  S
C323        C408   1.548       .  S
C323        C461   1.556       .  S
C323        C481   1.553       .  S
In324       O326   2.244       .  S
In324       O327   2.232       .  S
In324       O335   2.286       .  S
In324       O329   2.279       .  S
In324       O331   2.279   1_556  S
In324       O332   2.239       .  S
In324       O333   2.259       .  S
In324       O336   2.240       .  S
C325        O331   1.268       .  A
C325        O333   1.256   1_554  A
C328        O335   1.260       .  A
C328        O329   1.260       .  A
C328        C341   1.487       .  S
C330        O332   1.259       .  A
C330        O336   1.263       .  A
C330        C391   1.464       .  S
C334        C431   1.464       .  S
In337       O339   2.238       .  S
In337       O340   2.252       .  S
In337       O348   2.284       .  S
In337       O342   2.273       .  S
In337       O344   2.288   1_556  S
In337       O345   2.241       .  S
In337       O346   2.251   1_455  S
In337       O349   2.248   1_455  S
C338        O344   1.270       .  A
C338        O346   1.257   1_454  A
C338        C887   1.481   1_455  S
O339        C347   1.257       .  A
O340        C347   1.257       .  A
C341        O348   1.263       .  A
C341        O342   1.261       .  A
C343        O881   1.258       .  A
C343        O885   1.261       .  A
C343        C378   1.468       .  S
O345        C879   1.258   1_455  A
C347        C418   1.468       .  S
O349        C879   1.261       .  A
In350       O352   2.252       .  S
In350       O353   2.243       .  S
In350       O361   2.279       .  S
In350       O355   2.274       .  S
In350       O357   2.278       .  S
In350       O358   2.248       .  S
In350       O359   2.266       .  S
In350       O362   2.235       .  S
C351        O357   1.267       .  A
C351        O359   1.257       .  A
C351        C874   1.481       .  S
O352        C360   1.263       .  A
O353        C360   1.258       .  A
C354        O361   1.261       .  A
C354        O355   1.259       .  A
C354        C367   1.482       .  S
C356        O358   1.259       .  A
C356        O362   1.259       .  A
C356        C401   1.468       .  S
C360        C977   1.480       .  S
In363       O365   2.259       .  S
In363       O366   2.231       .  S
In363       O374   2.274       .  S
In363       O368   2.272       .  S
In363       O370   2.284       .  S
In363       O371   2.237       .  S
In363       O372   2.257       .  S
In363       O375   2.230   1_565  S
C364        O370   1.266       .  A
C364        O372   1.254       .  A
O365        C373   1.264       .  A
O366        C373   1.256       .  A
C367        O374   1.260       .  A
C367        O368   1.261       .  A
C369        O371   1.260       .  A
C369        O375   1.260   1_565  A
C373        C448   1.475       .  S
C376        C381   1.561       .  S
C376        C388   1.558       .  S
C376        C501   1.565       .  S
C376        C518   1.561       .  S
C377        C378   1.397       .  A
C377        C382   1.395       .  A
C377        H384   1.084       .  S
C378        C379   1.399       .  A
C379        C380   1.398       .  A
C379        F922   1.358       .  S
C380        C381   1.419       .  A
C380        H385   1.077       .  S
C381        C382   1.422       .  A
C382        F383   1.358       .  S
F386        C915   1.358       .  S
C387        C388   1.420       .  A
C387        C392   1.399       .  A
C387        H394   1.078       .  S
C388        C389   1.420       .  A
C389        C390   1.393       .  A
C389        F396   1.358       .  S
C390        C391   1.396       .  A
C390        H395   1.084       .  S
C391        C392   1.398       .  A
C392        F393   1.358       .  S
C397        C398   1.417       .  A
C397        C402   1.389       .  A
C397        H404   1.083       .  S
C398        C399   1.423       .  A
C399        C400   1.401       .  A
C399        F406   1.354       .  S
C400        C401   1.399       .  A
C400        H405   1.083       .  S
C401        C402   1.398       .  A
C402        F403   1.358       .  S
C407        C408   1.417       .  A
C407        C412   1.396       .  A
C407        H414   1.079       .  S
C408        C409   1.417       .  A
C409        C410   1.389       .  A
C409        F416   1.358       .  S
C410        C411   1.398       .  A
C410        H415   1.084       .  S
C411        C412   1.400       .  A
C417        C418   1.398       .  A
C417        C422   1.391       .  A
C417        H424   1.084       .  S
C418        C419   1.400       .  A
C419        C420   1.397       .  A
C419        F426   1.358       .  S
C420        C421   1.418       .  A
C420        H425   1.078       .  S
C421        C422   1.419       .  A
C422        F423   1.358       .  S
C427        C428   1.417       .  A
C427        C432   1.392       .  A
C427        H434   1.083       .  S
C428        C429   1.425       .  A
C429        C430   1.394       .  A
C429        F436   1.354       .  S
C430        C431   1.395       .  A
C430        H435   1.084       .  S
C431        C432   1.399       .  A
C432        F433   1.358       .  S
C437        C438   1.420       .  A
C437        C442   1.394       .  A
C437        H444   1.080       .  S
C438        C439   1.416       .  A
C439        C440   1.401       .  A
C439        F446   1.357       .  S
C440        C441   1.405       .  A
C440        H981   1.083   1_455  S
C441        C896   1.480   1_455  S
C441        C442   1.400       .  A
C442        F443   1.358       .  S
H445        C976   1.083       .  S
C447        C448   1.404       .  A
C447        C452   1.398       .  A
C447        H454   1.084       .  S
C448        C449   1.399       .  A
C449        C450   1.395       .  A
C449        F456   1.357       .  S
C450        C451   1.418       .  A
C450        H455   1.083       .  S
C451        C452   1.417       .  A
C452        F453   1.355       .  S
C457        C458   1.395       .  A
C457        C462   1.394       .  A
C457       H1000   1.084       .  S
C458        C459   1.398       .  A
C459        C460   1.393       .  A
C459        F466   1.358       .  S
C460        C461   1.417       .  A
C460        H465   1.083       .  S
C461        C462   1.423       .  A
C462        F463   1.354       .  S
H464        C993   1.084       .  S
C467        C468   1.419       .  A
C467        C472   1.389       .  A
C467        H474   1.078       .  S
C468        C469   1.417       .  A
C469        C470   1.403       .  A
C469        F476   1.357       .  S
C470        C471   1.404       .  A
C470        H475   1.083   1_565  S
C471        C472   1.397       .  A
C472        F473   1.358       .  S
C477        C478   1.397       .  A
C477        C482   1.399       .  A
C477        H484   1.084       .  S
C478        C479   1.398       .  A
C479        C480   1.390       .  A
C479        F486   1.358       .  S
C480        C481   1.414       .  A
C480        H485   1.083       .  S
C481        C482   1.426       .  A
C482        F483   1.355       .  S
C487        C488   1.394       .  A
C487        C492   1.390       .  A
C487        H494   1.084       .  S
C488        C489   1.402       .  A
C489        C490   1.402       .  A
C489        F496   1.357       .  S
C490        C491   1.414       .  A
C490        H495   1.079       .  S
C491        C492   1.421       .  A
C492        F493   1.357       .  S
C497        C498   1.395       .  A
C497        C502   1.399       .  A
C498        C499   1.398       .  A
C499        C500   1.395       .  A
C499        F506   1.358       .  S
C500        C501   1.418       .  A
C500        H505   1.083       .  S
C501        C502   1.426       .  A
C502        F503   1.354       .  S
C507        C508   1.396       .  A
C507        C512   1.392       .  A
C507        H514   1.084       .  S
C508        C824   1.462   1_455  S
C508        C509   1.399       .  A
C509        C510   1.395       .  A
C509       F1052   1.358   1_455  S
C510        C511   1.416       .  A
C510        H515   1.078       .  S
C511        C512   1.421       .  A
C512        F513   1.358       .  S
F516       C1045   1.358       .  S
C517        C518   1.417       .  A
C517        C522   1.392       .  A
C517        H524   1.083       .  S
C518        C519   1.425       .  A
C519        C520   1.398       .  A
C519        F526   1.353       .  S
C520        C521   1.397       .  A
C520        H525   1.084       .  S
C521        C522   1.399       .  A
C522        F523   1.358       .  S
C527        C528   1.397       .  A
C527        C532   1.393       .  A
C527        H534   1.084       .  S
C528        C529   1.399       .  A
C529        C530   1.396       .  A
C529        F536   1.357       .  S
C530        C531   1.417       .  A
C530        H535   1.077       .  S
C531        C532   1.421       .  A
C532        F533   1.358       .  S
In537       O539   2.250       .  S
In537       O540   2.244       .  S
In537       O548   2.280       .  S
In537       O542   2.274       .  S
In537       O544   2.276       .  S
In537       O545   2.237       .  S
In537       O546   2.248       .  S
In537       O549   2.247       .  S
C538        O544   1.269       .  A
C538        O546   1.257       .  A
C538        C564   1.476       .  S
O539        C547   1.259       .  A
O540        C547   1.257       .  A
C541        O548   1.262       .  A
C541        O542   1.261       .  A
C541        C554   1.486       .  S
C543        O545   1.257       .  A
C543        O549   1.260       .  A
C543        C796   1.466       .  S
C547        C789   1.469       .  S
In550       O552   2.255       .  S
In550       O553   2.234       .  S
In550       O561   2.281       .  S
In550       O555   2.276       .  S
In550       O557   2.279       .  S
In550       O558   2.230       .  S
In550       O559   2.253       .  S
In550       O562   2.246       .  S
C551        O557   1.269       .  A
C551        O559   1.257       .  A
O552        C560   1.262       .  A
O553        C560   1.257       .  A
C554        O561   1.261       .  A
C554        O555   1.261       .  A
C556        O558   1.257       .  A
C556        O562   1.259       .  A
C560       C1034   1.466       .  S
In563       O565   2.240       .  S
In563       O566   2.235       .  S
In563       O574   2.272       .  S
In563       O568   2.270       .  S
In563       O570   2.276       .  S
In563       O571   2.245       .  S
In563       O572   2.256       .  S
In563       O575   2.245       .  S
C564        O570   1.268       .  A
C564        O572   1.257       .  A
O565        C573   1.260       .  A
O566        C573   1.257       .  A
C567        O574   1.261       .  A
C567        O568   1.261       .  A
C567        C580   1.482       .  S
C569        O571   1.256       .  A
C569        O575   1.261       .  A
C569        C756   1.466       .  S
C573        C746   1.463       .  S
In576       O578   2.245       .  S
In576       O579   2.224       .  S
In576       O587   2.276       .  S
In576       O581   2.276       .  S
In576       O583   2.280       .  S
In576       O584   2.241       .  S
In576       O585   2.254   1_545  S
In576       O588   2.239   1_545  S
C577        O583   1.267       .  A
C577        O585   1.256   1_545  A
C580        O587   1.260       .  A
C580        O581   1.260       .  A
C582        O852   1.257       .  A
C582        O856   1.264       .  A
C582        C739   1.473       .  S
O584        C850   1.257   1_545  A
C586        C726   1.462       .  S
O588        C850   1.263       .  A
C589        C706   1.563       .  S
C589        C719   1.556       .  S
C589        C736   1.559       .  S
C589        C759   1.556       .  S
C590        C689   1.556       .  S
C590        C696   1.558       .  S
C590        C779   1.552       .  S
C590        C799   1.558       .  S
C591        C666   1.556       .  S
C591        C676   1.548       .  S
C591        C729   1.556       .  S
C591        C749   1.553       .  S
In592       O594   2.244   1_545  S
In592       O595   2.230       .  S
In592       O603   2.285       .  S
In592       O597   2.278       .  S
In592       O599   2.279   1_556  S
In592       O600   2.238       .  S
In592       O601   2.257       .  S
In592       O604   2.241       .  S
C593        O599   1.268       .  A
C593        O601   1.256   1_554  A
C593        C900   1.478   1_545  S
O594        C870   1.258       .  A
O595        C870   1.258   1_545  A
C596        O603   1.260       .  A
C596        O597   1.260       .  A
C596        C609   1.486       .  S
C598        O600   1.259       .  A
C598        O604   1.263       .  A
C598        C659   1.463       .  S
C602        O862   1.258       .  A
C602        O863   1.258       .  A
C602        C699   1.465       .  S
In605       O607   2.236       .  S
In605       O608   2.251       .  S
In605       O616   2.282       .  S
In605       O610   2.271       .  S
In605       O612   2.287   1_556  S
In605       O613   2.241       .  S
In605       O614   2.252       .  S
In605       O617   2.247       .  S
C606        O612   1.270       .  A
C606        O614   1.257   1_554  A
O607        C615   1.257       .  A
O608        C615   1.257       .  A
C609        O616   1.263       .  A
C609        O610   1.261       .  A
C611        C646   1.467       .  S
C615        C686   1.467       .  S
In618       O620   2.252       .  S
In618       O621   2.243       .  S
In618       O629   2.279       .  S
In618       O623   2.274       .  S
In618       O625   2.279       .  S
In618       O626   2.248       .  S
In618       O627   2.266       .  S
In618       O630   2.235       .  S
C619        O625   1.267       .  A
C619        O627   1.257       .  A
O620        C628   1.263       .  A
O621        C628   1.258       .  A
C622        O629   1.261       .  A
C622        O623   1.260       .  A
C622        C635   1.482       .  S
C624        O626   1.259       .  A
C624        O630   1.259       .  A
C624        C669   1.468       .  S
In631       O633   2.258       .  S
In631       O634   2.234       .  S
In631       O642   2.275       .  S
In631       O636   2.272       .  S
In631       O638   2.285       .  S
In631       O639   2.237       .  S
In631       O640   2.256       .  S
In631       O643   2.230       .  S
C632        O638   1.267       .  A
C632        O640   1.254       .  A
C632        C861   1.479       .  S
O633        C641   1.264       .  A
O634        C641   1.256       .  A
C635        O642   1.260       .  A
C635        O636   1.261       .  A
C637        O639   1.260       .  A
C637        O643   1.260       .  A
C637        C947   1.464       .  S
C641        C716   1.475       .  S
C644        C649   1.561       .  S
C644        C656   1.557       .  S
C644        C769   1.564       .  S
C644        C786   1.561       .  S
C645        C646   1.396       .  A
C645        C650   1.394       .  A
C645        H652   1.084       .  S
C646        C647   1.399       .  A
C647        C648   1.398       .  A
C648        C649   1.419       .  A
C648        H653   1.077       .  S
C649        C650   1.422       .  A
C650        F651   1.358       .  S
C655        C656   1.420       .  A
C655        C660   1.399       .  A
C655        H662   1.078       .  S
C656        C657   1.420       .  A
C657        C658   1.393       .  A
C657        F664   1.358       .  S
C658        C659   1.396       .  A
C658        H663   1.084       .  S
C659        C660   1.398       .  A
C660        F661   1.358       .  S
C665        C666   1.417       .  A
C665        C670   1.389       .  A
C665        H672   1.083       .  S
C666        C667   1.423       .  A
C667        C668   1.401       .  A
C667        F674   1.354       .  S
C668        C669   1.399       .  A
C668        H673   1.083       .  S
C669        C670   1.398       .  A
C670        F671   1.358       .  S
C675        C676   1.417       .  A
C675        C680   1.396       .  A
C675        H682   1.079       .  S
C676        C677   1.417       .  A
C677        C678   1.389       .  A
C677        F684   1.357       .  S
C678        C679   1.398       .  A
C678        H683   1.084       .  S
C679        C905   1.464   1_545  S
C679        C680   1.400       .  A
C680        F949   1.358   1_545  S
F681        C948   1.358       .  S
C685        C686   1.398       .  A
C685        C690   1.391       .  A
C685        H692   1.084       .  S
C686        C687   1.400       .  A
C687        C688   1.397       .  A
C687        F694   1.358       .  S
C688        C689   1.418       .  A
C688        H693   1.078       .  S
C689        C690   1.419       .  A
C690        F691   1.358       .  S
C695        C696   1.417       .  A
C695        C700   1.392       .  A
C695        H702   1.083       .  S
C696        C697   1.425       .  A
C697        C698   1.394       .  A
C697        F704   1.354       .  S
C698        C699   1.395       .  A
C698        H703   1.084       .  S
C699        C700   1.399       .  A
C700        F701   1.358       .  S
C705        C706   1.419       .  A
C705        C710   1.395       .  A
C705        H712   1.080       .  S
C706        C707   1.416       .  A
C707        C708   1.401       .  A
C707        F714   1.357       .  S
C708        C709   1.405       .  A
C709        C710   1.400       .  A
C710        F711   1.358       .  S
C715        C716   1.404       .  A
C715        C720   1.398       .  A
C715        H722   1.084       .  S
C716        C717   1.399       .  A
C717        C718   1.395       .  A
C717        F724   1.357       .  S
C718        C719   1.417       .  A
C718        H723   1.083       .  S
C719        C720   1.418       .  A
C720        F721   1.355       .  S
C725        C726   1.395       .  A
C725        C730   1.395       .  A
C726        C727   1.399       .  A
C727        C728   1.393       .  A
C727        F734   1.358       .  S
C728        C729   1.417       .  A
C728        H733   1.083       .  S
C729        C730   1.424       .  A
C730        F731   1.354       .  S
C735        C736   1.419       .  A
C735        C740   1.389       .  A
C735        H742   1.078       .  S
C736        C737   1.417       .  A
C737        C738   1.402       .  A
C737        F744   1.357       .  S
C738        C739   1.404       .  A
C738        H743   1.083       .  S
C739        C740   1.397       .  A
C740        F741   1.358       .  S
C745        C746   1.397       .  A
C745        C750   1.399       .  A
C745        H752   1.084       .  S
C746        C747   1.398       .  A
C747        C748   1.390       .  A
C747        F754   1.358       .  S
C748        C749   1.414       .  A
C748        H753   1.083       .  S
C749        C750   1.426       .  A
C750        F751   1.355       .  S
C755        C756   1.395       .  A
C755        C760   1.391       .  A
C755        H762   1.084       .  S
C756        C757   1.402       .  A
C757        C758   1.402       .  A
C757        F764   1.357       .  S
C758        C759   1.415       .  A
C758        H763   1.079       .  S
C759        C760   1.420       .  A
C760        F761   1.357       .  S
C765        C766   1.395       .  A
C765        C770   1.398       .  A
C765       H1040   1.084   1_545  S
C766        C828   1.465   1_545  S
C766        C767   1.397       .  A
C767        C768   1.395       .  A
C767        F774   1.358       .  S
C768        C769   1.418       .  A
C768        H773   1.083       .  S
C769        C770   1.426       .  A
C770        F771   1.354       .  S
H772       C1033   1.084       .  S
C775        C776   1.396       .  A
C775        C780   1.392       .  A
C775        H782   1.084       .  S
C776        C777   1.399       .  A
C777        C778   1.395       .  A
C778        C779   1.416       .  A
C778        H783   1.078       .  S
C779        C780   1.421       .  A
C780        F781   1.358       .  S
C785        C786   1.417       .  A
C785        C790   1.392       .  A
C785        H792   1.083       .  S
C786        C787   1.425       .  A
C787        C788   1.398       .  A
C787        F794   1.353       .  S
C788        C789   1.397       .  A
C788        H793   1.084       .  S
C789        C790   1.399       .  A
C790        F791   1.358       .  S
C795        C796   1.397       .  A
C795        C800   1.393       .  A
C795        H802   1.084       .  S
C796        C797   1.399       .  A
C797        C798   1.396       .  A
C797        F804   1.357       .  S
C798        C799   1.417       .  A
C798        H803   1.077       .  S
C799        C800   1.421       .  A
C800        F801   1.358       .  S
In805       O807   2.250       .  S
In805       O808   2.243       .  S
In805       O816   2.281       .  S
In805       O810   2.272       .  S
In805       O812   2.275       .  S
In805       O813   2.236       .  S
In805       O814   2.248       .  S
In805       O817   2.246       .  S
C806        O812   1.269       .  A
C806        O814   1.257       .  A
C806        C832   1.476       .  S
O807        C815   1.259       .  A
O808        C815   1.257       .  A
C809        O816   1.262       .  A
C809        O810   1.261       .  A
C809        C822   1.485       .  S
C811        O813   1.257       .  A
C811        O817   1.260       .  A
C811       C1064   1.465       .  S
C815       C1057   1.469       .  S
In818       O820   2.254       .  S
In818       O821   2.233       .  S
In818       O829   2.281       .  S
In818       O823   2.274       .  S
In818       O825   2.278       .  S
In818       O826   2.230       .  S
In818       O827   2.252       .  S
In818       O830   2.245       .  S
C819        O825   1.269       .  A
C819        O827   1.257       .  A
O820        C828   1.262       .  A
O821        C828   1.257       .  A
C822        O829   1.261       .  A
C822        O823   1.261       .  A
C824        O826   1.257       .  A
C824        O830   1.259       .  A
In831       O833   2.240       .  S
In831       O834   2.235       .  S
In831       O842   2.271       .  S
In831       O836   2.270       .  S
In831       O838   2.276       .  S
In831       O839   2.243       .  S
In831       O840   2.255       .  S
In831       O843   2.244       .  S
C832        O838   1.268       .  A
C832        O840   1.257       .  A
O833        C841   1.260       .  A
O834        C841   1.257       .  A
C835        O842   1.261       .  A
C835        O836   1.262       .  A
C835        C848   1.482       .  S
C837        O839   1.256       .  A
C837        O843   1.261       .  A
C837       C1024   1.465       .  S
C841       C1014   1.463       .  S
In844       O846   2.245       .  S
In844       O847   2.224       .  S
In844       O855   2.276       .  S
In844       O849   2.277       .  S
In844       O851   2.281       .  S
In844       O852   2.239       .  S
In844       O853   2.255       .  S
In844       O856   2.240       .  S
C845        O851   1.267       .  A
C845        O853   1.256       .  A
C848        O855   1.260       .  A
C848        O849   1.260       .  A
C850       C1007   1.473       .  S
C854        C994   1.461       .  S
C857        C974   1.563       .  S
C857        C987   1.555       .  S
C857       C1004   1.559       .  S
C857       C1027   1.556       .  S
C858        C957   1.557       .  S
C858        C964   1.558       .  S
C858       C1047   1.552       .  S
C858       C1067   1.558       .  S
C859        C934   1.556       .  S
C859        C944   1.548       .  S
C859        C997   1.556       .  S
C859       C1017   1.553       .  S
In860       O862   2.244       .  S
In860       O863   2.232       .  S
In860       O871   2.286       .  S
In860       O865   2.279       .  S
In860       O867   2.279   1_556  S
In860       O868   2.239       .  S
In860       O869   2.259       .  S
In860       O872   2.240       .  S
C861        O867   1.268       .  A
C861        O869   1.256   1_554  A
C864        O871   1.260       .  A
C864        O865   1.260       .  A
C864        C877   1.487       .  S
C866        O868   1.259       .  A
C866        O872   1.263       .  A
C866        C927   1.464       .  S
C870        C967   1.464       .  S
In873       O875   2.238       .  S
In873       O876   2.252       .  S
In873       O884   2.284       .  S
In873       O878   2.273       .  S
In873       O880   2.288   1_556  S
In873       O881   2.241       .  S
In873       O882   2.251       .  S
In873       O885   2.248       .  S
C874        O880   1.270       .  A
C874        O882   1.257   1_554  A
O875        C883   1.257       .  A
O876        C883   1.257       .  A
C877        O884   1.263       .  A
C877        O878   1.261       .  A
C879        C914   1.468       .  S
C883        C954   1.468       .  S
In886       O888   2.252       .  S
In886       O889   2.243       .  S
In886       O897   2.279       .  S
In886       O891   2.274       .  S
In886       O893   2.278       .  S
In886       O894   2.248       .  S
In886       O895   2.266       .  S
In886       O898   2.235       .  S
C887        O893   1.267       .  A
C887        O895   1.257       .  A
O888        C896   1.263       .  A
O889        C896   1.258       .  A
C890        O897   1.261       .  A
C890        O891   1.259       .  A
C890        C903   1.482       .  S
C892        O894   1.259       .  A
C892        O898   1.259       .  A
C892        C937   1.468       .  S
In899       O901   2.259       .  S
In899       O902   2.231       .  S
In899       O910   2.274       .  S
In899       O904   2.272       .  S
In899       O906   2.284       .  S
In899       O907   2.237       .  S
In899       O908   2.257       .  S
In899       O911   2.230   1_565  S
C900        O906   1.266       .  A
C900        O908   1.254       .  A
O901        C909   1.264       .  A
O902        C909   1.256       .  A
C903        O910   1.260       .  A
C903        O904   1.261       .  A
C905        O907   1.260       .  A
C905        O911   1.260   1_565  A
C909        C984   1.475       .  S
C912        C917   1.561       .  S
C912        C924   1.558       .  S
C912       C1037   1.565       .  S
C912       C1054   1.561       .  S
C913        C914   1.397       .  A
C913        C918   1.395       .  A
C913        H920   1.084       .  S
C914        C915   1.399       .  A
C915        C916   1.398       .  A
C916        C917   1.419       .  A
C916        H921   1.077       .  S
C917        C918   1.422       .  A
C918        F919   1.358       .  S
C923        C924   1.420       .  A
C923        C928   1.399       .  A
C923        H930   1.078       .  S
C924        C925   1.420       .  A
C925        C926   1.393       .  A
C925        F932   1.358       .  S
C926        C927   1.396       .  A
C926        H931   1.084       .  S
C927        C928   1.398       .  A
C928        F929   1.358       .  S
C933        C934   1.417       .  A
C933        C938   1.389       .  A
C933        H940   1.083       .  S
C934        C935   1.423       .  A
C935        C936   1.401       .  A
C935        F942   1.354       .  S
C936        C937   1.399       .  A
C936        H941   1.083       .  S
C937        C938   1.398       .  A
C938        F939   1.358       .  S
C943        C944   1.417       .  A
C943        C948   1.396       .  A
C943        H950   1.079       .  S
C944        C945   1.417       .  A
C945        C946   1.389       .  A
C945        F952   1.358       .  S
C946        C947   1.398       .  A
C946        H951   1.084       .  S
C947        C948   1.400       .  A
C953        C954   1.398       .  A
C953        C958   1.391       .  A
C953        H960   1.084       .  S
C954        C955   1.400       .  A
C955        C956   1.397       .  A
C955        F962   1.358       .  S
C956        C957   1.418       .  A
C956        H961   1.078       .  S
C957        C958   1.419       .  A
C958        F959   1.358       .  S
C963        C964   1.417       .  A
C963        C968   1.392       .  A
C963        H970   1.083       .  S
C964        C965   1.425       .  A
C965        C966   1.394       .  A
C965        F972   1.354       .  S
C966        C967   1.395       .  A
C966        H971   1.084       .  S
C967        C968   1.399       .  A
C968        F969   1.358       .  S
C973        C974   1.420       .  A
C973        C978   1.394       .  A
C973        H980   1.080       .  S
C974        C975   1.416       .  A
C975        C976   1.401       .  A
C975        F982   1.357       .  S
C976        C977   1.405       .  A
C977        C978   1.400       .  A
C978        F979   1.358       .  S
C983        C984   1.404       .  A
C983        C988   1.398       .  A
C983        H990   1.084       .  S
C984        C985   1.399       .  A
C985        C986   1.395       .  A
C985        F992   1.357       .  S
C986        C987   1.418       .  A
C986        H991   1.083       .  S
C987        C988   1.417       .  A
C988        F989   1.355       .  S
C993        C994   1.395       .  A
C993        C998   1.394       .  A
C994        C995   1.398       .  A
C995        C996   1.393       .  A
C995       F1002   1.358       .  S
C996        C997   1.417       .  A
C996       H1001   1.083       .  S
C997        C998   1.423       .  A
C998        F999   1.354       .  S
C1003      C1004   1.419       .  A
C1003      C1008   1.389       .  A
C1003      H1010   1.078       .  S
C1004      C1005   1.417       .  A
C1005      C1006   1.403       .  A
C1005      F1012   1.357       .  S
C1006      C1007   1.404       .  A
C1006      H1011   1.083   1_565  S
C1007      C1008   1.397       .  A
C1008      F1009   1.358       .  S
C1013      C1014   1.397       .  A
C1013      C1018   1.399       .  A
C1013      H1020   1.084       .  S
C1014      C1015   1.398       .  A
C1015      C1016   1.390       .  A
C1015      F1022   1.358       .  S
C1016      C1017   1.414       .  A
C1016      H1021   1.083       .  S
C1017      C1018   1.426       .  A
C1018      F1019   1.355       .  S
C1023      C1024   1.394       .  A
C1023      C1028   1.390       .  A
C1023      H1030   1.084       .  S
C1024      C1025   1.402       .  A
C1025      C1026   1.402       .  A
C1025      F1032   1.357       .  S
C1026      C1027   1.414       .  A
C1026      H1031   1.079       .  S
C1027      C1028   1.421       .  A
C1028      F1029   1.357       .  S
C1033      C1034   1.395       .  A
C1033      C1038   1.399       .  A
C1034      C1035   1.398       .  A
C1035      C1036   1.395       .  A
C1035      F1042   1.358       .  S
C1036      C1037   1.418       .  A
C1036      H1041   1.083       .  S
C1037      C1038   1.426       .  A
C1038      F1039   1.354       .  S
C1043      C1044   1.396       .  A
C1043      C1048   1.392       .  A
C1043      H1050   1.084       .  S
C1044      C1045   1.399       .  A
C1045      C1046   1.395       .  A
C1046      C1047   1.416       .  A
C1046      H1051   1.078       .  S
C1047      C1048   1.421       .  A
C1048      F1049   1.358       .  S
C1053      C1054   1.417       .  A
C1053      C1058   1.392       .  A
C1053      H1060   1.083       .  S
C1054      C1055   1.425       .  A
C1055      C1056   1.398       .  A
C1055      F1062   1.353       .  S
C1056      C1057   1.397       .  A
C1056      H1061   1.084       .  S
C1057      C1058   1.399       .  A
C1058      F1059   1.358       .  S
C1063      C1064   1.397       .  A
C1063      C1068   1.393       .  A
C1063      H1070   1.084       .  S
C1064      C1065   1.399       .  A
C1065      C1066   1.396       .  A
C1065      F1072   1.357       .  S
C1066      C1067   1.417       .  A
C1066      H1071   1.077       .  S
C1067      C1068   1.421       .  A
C1068      F1069   1.358       .  S
