geometry optimzed in LAMMPS
_audit_creation_date              2020-11-30 
_audit_creation_method            'lammps2cif' 
_symmetry_space_group_name_H-M    'P1' 
_symmetry_Int_Tables_number       1 
_symmetry_cell_setting            triclinic 
loop_ 
_symmetry_equiv_pos_as_xyz 
  x,y,z 
_cell_length_a                    36.43536853 
_cell_length_b                    36.4550455645758 
_cell_length_c                    34.35832805772756 
_cell_angle_alpha                 89.91978256511236 
_cell_angle_beta                  90.2719702735076 
_cell_angle_gamma                 119.78024335450567 
loop_ 
_atom_site_label 
_atom_site_type_symbol 
_atom_site_fract_x 
_atom_site_fract_y 
_atom_site_fract_z 
_atom_site_charge 
C1          C  0.49992602  0.99941772  0.78736337     0.47100
H2          H  0.50026044  0.99977719  0.81967756    -0.01900
C3          C  0.99901679  0.49839529  0.71189793     0.47100
H4          H  0.99874177  0.49794452  0.67957731    -0.01900
C5          C  0.46120766  0.46038107  0.76994383    -0.15600
C6          C  0.49940689  0.03779801  0.76919059    -0.15400
C7          C  0.03859820  0.49944430  0.76974783    -0.15800
C8          C  0.46074990  0.45983140  0.72991586    -0.15800
C9          C  0.99874498  0.03711516  0.72916179    -0.15300
C10         C  0.03816209  0.99908072  0.72974292    -0.15600
O11         O  0.24667682  0.13689102  0.04707733    -0.77500
C12         C  0.25600271  0.07769130  0.93730207     0.84200
O13         O  0.36454299  0.10323535  0.04910706    -0.78000
O14         O  0.39382543  0.17642223  0.91951186    -0.79500
O15         O  0.33349170  0.25171580  0.97571995    -0.79300
O16         O  0.29064190  0.20584606  0.05523876    -0.77900
Zn17       Zn  0.28332385  0.11782343  0.01834496     1.55700
O18         O  0.32579097  0.21595448  0.92065027    -0.79300
Cd19       Cd  0.34034760  0.21767437  0.01999208     1.59700
Cd20       Cd  0.38368155  0.15938182  0.01871078     1.59600
O21         O  0.39658730  0.25365861  0.04983038    -0.79300
O22         O  0.33500028  0.16460316  0.99883285    -1.89800
Cd23       Cd  0.33511779  0.16624684  0.93993609     1.59900
O24         O  0.42224785  0.20950359  0.05378943    -0.79200
O25         O  0.28600715  0.10822191  0.91873025    -0.77900
C26         C  0.32739444  0.07655271  0.06047419     0.84600
C27         C  0.25478156  0.17297615  0.06001782     0.84300
O28         O  0.25164241  0.07921472  0.97392563    -0.76800
C29         C  0.32635104  0.24661245  0.93925619     0.85100
O30         O  0.29558756  0.08092137  0.05267346    -0.76900
C31         C  0.42478614  0.24492660  0.06096243     0.85200
C32         C  0.42443386  0.17551502  0.93702762     0.85600
O33         O  0.42328031  0.16700058  0.97314471    -0.79400
C34         C  0.33628618  0.33439186  0.87284720     0.04800
C35         C  0.30560220  0.34251904  0.88931420    -0.11400
C36         C  0.28122586  0.31853531  0.92082538     0.02300
C37         C  0.28781880  0.28658736  0.93612191    -0.09900
C38         C  0.31699928  0.27695016  0.91926597     0.04700
C39         C  0.34024913  0.30006804  0.88689758    -0.09300
H40         H  0.30268187  0.36924019  0.87958497     0.10300
H41         H  0.27027757  0.26925041  0.96161446     0.07900
H42         H  0.36340831  0.29317530  0.87440214     0.07700
O43         O  0.16819896  0.41955817  0.97439489    -0.76900
C44         C  0.07950712  0.32435852  0.06005118     0.84200
O45         O  0.25456664  0.39435618  0.05498700    -0.78000
O46         O  0.14071169  0.24319572  0.04671033    -0.79500
O47         O  0.11135624  0.28360461  0.91958630    -0.79300
O48         O  0.17694641  0.39164956  0.91982658    -0.77900
Zn49       Zn  0.16193990  0.38105101  0.01864842     1.55700
O50         O  0.08095397  0.24827464  0.97410495    -0.79300
Cd51       Cd  0.16905545  0.33385617  0.94083803     1.59700
Cd52       Cd  0.22154846  0.33974389  0.02166740     1.59600
O53         O  0.21976461  0.32606187  0.92253167    -0.79300
O54         O  0.16860858  0.33472736  0.99963462    -1.89800
Cd55       Cd  0.12109804  0.28088695  0.01905787     1.59900
O56         O  0.25757941  0.33671793  0.97716067    -0.79200
O57         O  0.08347036  0.29192482  0.05527322    -0.77900
C58         C  0.24438523  0.42196815  0.06443265     0.84600
C59         C  0.17554940  0.42151702  0.93804058     0.84300
O60         O  0.10631535  0.36057057  0.04677665    -0.76800
C61         C  0.08038912  0.25330002  0.93750134     0.85100
O62         O  0.20947829  0.41895016  0.05396168    -0.76900
C63         C  0.25156758  0.32851700  0.94087970     0.85200
C64         C  0.17716839  0.25129920  0.05849963     0.85600
O65         O  0.20989138  0.28735335  0.05374548    -0.79400
C66         C  0.15704487  0.15427379  0.11600561     0.04800
C67         C  0.19130662  0.14952008  0.10336669    -0.11400
C68         C  0.22099686  0.17865360  0.07727770     0.02300
C69         C  0.21720445  0.21326625  0.06494377    -0.09900
C70         C  0.18249311  0.21734277  0.07582843     0.04700
C71         C  0.15203957  0.18734330  0.10060251    -0.09300
H72         H  0.19548718  0.12393785  0.11422793     0.10300
H73         H  0.23993170  0.23568438  0.04452299     0.07900
H74         H  0.12458480  0.18998647  0.10803444     0.07700
C75         C  0.16732339  0.50047343  0.87123300     0.04800
C76         C  0.20158038  0.03859009  0.88537286    -0.11400
C77         C  0.22574545  0.03827642  0.91708774     0.02300
C78         C  0.21722894  0.49947726  0.93316760    -0.09900
C79         C  0.18526970  0.46110655  0.91787303     0.04700
C80         C  0.16025860  0.46168869  0.88701403    -0.09300
H81         H  0.20766755  0.06862119  0.87345951     0.10300
H82         H  0.23527628  0.49914616  0.95824790     0.07900
H83         H  0.13351282  0.43217178  0.87737167     0.07700
C84         C  0.00147621  0.34156975  0.11870407     0.04800
C85         C  0.46324363  0.30694483  0.10567832    -0.11400
C86         C  0.46367170  0.27792319  0.07938059     0.02300
C87         C  0.00234167  0.28287196  0.06699360    -0.09900
C88         C  0.04049944  0.31811401  0.07827338     0.04700
C89         C  0.04008048  0.34770096  0.10387461    -0.09300
H90         H  0.43323944  0.30251944  0.11594867     0.10300
H91         H  0.50265285  0.26084283  0.04596599     0.07900
H92         H  0.06959428  0.37543508  0.11198184     0.07700
C93         C  0.00194452  0.16673103  0.87006537     0.04800
C94         C  0.46367805  0.16241159  0.88422309    -0.11400
C95         C  0.46377155  0.18621529  0.91612417     0.02300
C96         C  0.00245485  0.21677555  0.93209268    -0.09900
C97         C  0.04103517  0.22385476  0.91667941     0.04700
C98         C  0.04071116  0.19861360  0.88572412    -0.09300
H99         H  0.43368032  0.13831809  0.87240475     0.10300
H100        H  0.00250530  0.23456501  0.95741218     0.07900
H101        H  0.07034137  0.20160577  0.87607949     0.07700
C102        C  0.33554533  0.49800273  0.12857851     0.04800
C103        C  0.34581642  0.03638174  0.10948066    -0.11400
C104        C  0.31919782  0.03735770  0.08031174     0.02300
C105        C  0.28419181  0.49958070  0.06798765    -0.09900
C106        C  0.27555609  0.46100078  0.08410613     0.04700
C107        C  0.29959326  0.46045482  0.11564007    -0.09300
H108        H  0.37425431  0.06544172  0.11695814     0.10300
H109        H  0.26511296  0.49994671  0.04380617     0.07900
H110        H  0.28973089  0.43049754  0.12972935     0.07700
O111        O  0.41531342  0.16455213  0.52218664    -0.76900
C112        C  0.31941414  0.07587549  0.43703273     0.84200
O113        O  0.39007063  0.25281891  0.44624677    -0.78000
O114        O  0.23831480  0.13754182  0.44998767    -0.79500
O115        O  0.28047941  0.10758776  0.57767693    -0.79300
O116        O  0.38785104  0.17220682  0.57745258    -0.77900
Zn117      Zn  0.37631509  0.15894403  0.47829024     1.55700
O118        O  0.24333474  0.07725034  0.52359058    -0.79300
Cd119      Cd  0.33014978  0.16514719  0.55716214     1.59700
Cd120      Cd  0.33506543  0.21838951  0.47832482     1.59600
O121        O  0.32254665  0.21531794  0.57768839    -0.79300
O122        O  0.32991759  0.16491030  0.49834942    -1.89800
Cd123      Cd  0.27567447  0.11737506  0.47838648     1.59900
O124        O  0.33130316  0.25326026  0.52379289    -0.79200
O125        O  0.28669424  0.07931060  0.44223783    -0.77900
C126        C  0.41746863  0.24287897  0.43546876     0.84600
C127        C  0.41752284  0.17105453  0.55874607     0.84300
O128        O  0.35578190  0.10343301  0.44966285    -0.76800
C129        C  0.24957888  0.07677680  0.56005914     0.85100
O130        O  0.41401558  0.20727397  0.44372727    -0.76900
C131        C  0.32412925  0.24705238  0.56016442     0.85200
C132        C  0.24724388  0.17450584  0.43912595     0.85600
O133        O  0.28327026  0.20681589  0.44548383    -0.79400
C134        C  0.33219067  0.33246900  0.62902405     0.04800
C135        C  0.33963293  0.30140574  0.61224327    -0.11400
C136        C  0.31441038  0.27641245  0.58130936     0.02300
C137        C  0.28176258  0.28261405  0.56712553    -0.09900
C138        C  0.27287005  0.31221930  0.58423477     0.04700
C139        C  0.29737819  0.33624525  0.61587639    -0.09300
H140        H  0.36677972  0.29874972  0.62116317     0.10300
H141        H  0.26359176  0.26478127  0.54194816     0.07900
H142        H  0.29121400  0.35991690  0.62836956     0.07700
O143        O  0.13620153  0.24686176  0.44976819    -0.76900
C144        C  0.07409780  0.25096911  0.56145883     0.84200
O145        O  0.09977360  0.36169020  0.45592210    -0.78000
O146        O  0.17327467  0.38982081  0.58257911    -0.79500
O147        O  0.24922821  0.33082146  0.52811014    -0.79300
O148        O  0.20583382  0.29057658  0.44675027    -0.77900
Zn149      Zn  0.11545951  0.28041690  0.48156045     1.55700
O150        O  0.21135045  0.32040564  0.58210073    -0.79300
Cd151      Cd  0.21596894  0.33833037  0.48359160     1.59700
Cd152      Cd  0.15722195  0.38012066  0.48310184     1.59600
O153        O  0.25198432  0.39479265  0.45513188    -0.79300
O154        O  0.16185751  0.33144207  0.50296766    -1.89800
Cd155      Cd  0.16240360  0.33080834  0.56178971     1.59900
O156        O  0.20599196  0.41763912  0.44647119    -0.79200
O157        O  0.10347240  0.28160277  0.58072748    -0.77900
C158        C  0.07227090  0.32497154  0.44421413     0.84600
C159        C  0.17307283  0.25571545  0.43847572     0.84300
O160        O  0.07699897  0.24638712  0.52504117    -0.76800
C161        C  0.24289634  0.32213133  0.56418589     0.85100
O162        O  0.07676586  0.29287717  0.44968903    -0.76900
C163        C  0.24230946  0.42141139  0.44156057     0.85200
C164        C  0.17436559  0.42110500  0.56455092     0.85600
O165        O  0.16698483  0.42018784  0.52824650    -0.79400
C166        C  0.16600283  0.99988460  0.62970325     0.04800
C167        C  0.19640328  0.03818677  0.61251268    -0.11400
C168        C  0.22101170  0.03787318  0.58145868     0.02300
C169        C  0.21480428  0.99913695  0.56738336    -0.09900
C170        C  0.18559159  0.46088708  0.58487095     0.04700
C171        C  0.16254598  0.46151648  0.61699865    -0.09300
H172        H  0.19870538  0.06784342  0.62110216     0.10300
H173        H  0.23206278  0.99867616  0.54190629     0.07900
H174        H  0.13939495  0.43184193  0.62990296     0.07700
C175        C  0.99599778  0.16207609  0.62599237     0.04800
C176        C  0.45733802  0.15501381  0.60971263    -0.11400
C177        C  0.45709045  0.18002048  0.57875474     0.02300
C178        C  0.99567141  0.21178356  0.56379843    -0.09900
C179        C  0.03429875  0.22034909  0.58060603     0.04700
C180        C  0.03423422  0.19636260  0.61245650    -0.09300
H181        H  0.42770176  0.12840597  0.61913151     0.10300
H182        H  0.99565030  0.22988600  0.53871207     0.07900
H183        H  0.06415543  0.20264907  0.62498403     0.07700
C184        C  0.49571998  0.34057704  0.37989922     0.04800
C185        C  0.03261904  0.34891851  0.40093582    -0.11400
C186        C  0.03306451  0.31835848  0.42529881     0.02300
C187        C  0.49515247  0.28155940  0.43343376    -0.09900
C188        C  0.45707445  0.27524545  0.41760560     0.04700
C189        C  0.45767409  0.30306322  0.38910418    -0.09300
H190        H  0.06140485  0.37891508  0.39876020     0.10300
H191        H  0.49486603  0.25941834  0.45473013     0.07900
H192        H  0.42824478  0.29445683  0.37451180     0.07700
C193        C  0.15700035  0.16372585  0.37478971     0.04800
C194        C  0.18648442  0.15449646  0.39279969    -0.11400
C195        C  0.21459001  0.18159026  0.42113103     0.02300
C196        C  0.21094926  0.21593077  0.43402710    -0.09900
C197        C  0.17955402  0.22344525  0.41921927     0.04700
C198        C  0.15408116  0.19880011  0.38844138    -0.09300
H199        H  0.18797644  0.12655522  0.38488933     0.10300
H200        H  0.23124748  0.23559918  0.45744290     0.07900
H201        H  0.13272586  0.20774302  0.37520719     0.07700
C202        C  0.33956831  0.99610311  0.38449508     0.04800
C203        C  0.30566214  0.45845173  0.39886299    -0.11400
C204        C  0.27502442  0.45958663  0.42237038     0.02300
C205        C  0.27837143  0.49844568  0.43163157    -0.09900
C206        C  0.31348948  0.03637227  0.41983709     0.04700
C207        C  0.34397947  0.03520485  0.39597550    -0.09300
H208        H  0.30340771  0.42835087  0.39217338     0.10300
H209        H  0.25542642  0.49924734  0.45111632     0.07900
H210        H  0.37082252  0.06453225  0.38627853     0.07700
C211        C  0.49445012  0.50015123  0.21275542     0.47100
H212        H  0.49066789  0.50132644  0.18086479    -0.01900
C213        C  0.50454717  0.50162735  0.28750626     0.47100
H214        H  0.50978269  0.50169545  0.31932622    -0.01900
C215        C  0.03432426  0.03955030  0.22703606    -0.15600
C216        C  0.45749402  0.49839372  0.23620792    -0.15400
C217        C  0.49900904  0.46273085  0.22741577    -0.15800
C218        C  0.03905323  0.04085166  0.26655488    -0.15800
C219        C  0.46243940  0.49866747  0.27601450    -0.15300
C220        C  0.50393889  0.46371814  0.26744200    -0.15600
C221        C  0.38711972  0.46710351  0.30041965     0.25200
C222        C  0.43073399  0.49519967  0.30571089    -0.22900
C223        C  0.44375191  0.01899403  0.34056219     0.20100
C224        C  0.41416063  0.01914211  0.36608435     0.25200
C225        C  0.37079038  0.49451438  0.35826559    -0.22800
C226        C  0.35749640  0.46751591  0.32579018     0.20100
F227        F  0.31570576  0.44170298  0.31827846    -0.12800
F228        F  0.37289440  0.43716165  0.27230657    -0.15200
F229        F  0.42799658  0.04267983  0.39910566    -0.15200
F230        F  0.48488394  0.04152682  0.35112991    -0.12800
C231        C  0.11342380  0.08458682  0.29092883     0.25200
C232        C  0.07188344  0.07689619  0.28864138    -0.22900
C233        C  0.06010848  0.10176125  0.31028115     0.20100
C234        C  0.08690711  0.12895890  0.33889040     0.25200
C235        C  0.12852338  0.13593252  0.34305191    -0.22800
C236        C  0.14210424  0.11510771  0.31683538     0.20100
F237        F  0.18296854  0.12404646  0.31610921    -0.12800
F238        F  0.12601517  0.06230994  0.26842900    -0.15200
F239        F  0.07074919  0.14629279  0.36356138    -0.15200
F240        F  0.02230428  0.09956884  0.30364129    -0.12800
C241        C  0.03601223  0.39977461  0.33095848     0.25200
C242        C  0.49730560  0.37105210  0.34921250    -0.22900
C243        C  0.46076638  0.37307416  0.33803675     0.20100
C244        C  0.46270973  0.40031462  0.30838134     0.25200
C245        C  0.50156327  0.42946041  0.29210029    -0.22800
C246        C  0.03841477  0.43118520  0.30618602     0.20100
F247        F  0.07704276  0.46382034  0.29656084    -0.12800
F248        F  0.07192429  0.39782784  0.33611630    -0.15200
F249        F  0.42691115  0.40062550  0.29780177    -0.15200
F250        F  0.42344575  0.35105115  0.35691378    -0.12800
C251        C  0.36816978  0.46074480  0.16510147     0.25200
C252        C  0.36325137  0.49663264  0.16032935    -0.22900
C253        C  0.38576167  0.03119580  0.18607476     0.20100
C254        C  0.41552787  0.03150704  0.21233530     0.25200
C255        C  0.42089125  0.49617948  0.21540325    -0.22800
C256        C  0.39460089  0.45988024  0.19395656     0.20100
F257        F  0.39417476  0.42310324  0.20143538    -0.12800
F258        F  0.34960114  0.42704489  0.14073157    -0.15200
F259        F  0.43964310  0.06649412  0.23413801    -0.15200
F260        F  0.37932365  0.06480177  0.18590143    -0.12800
C261        C  0.02830902  0.38642838  0.17871859     0.25200
C262        C  0.50088311  0.37217016  0.14652895    -0.22900
C263        C  0.47407730  0.38882429  0.14004019     0.20100
C264        C  0.47352464  0.41794377  0.16588905     0.25200
C265        C  0.49918448  0.43078405  0.19976562    -0.22800
C266        C  0.02843174  0.41636548  0.20411666     0.20100
F267        F  0.06056521  0.43454652  0.22986820    -0.12800
F268        F  0.05569790  0.37198310  0.18534061    -0.15200
F269        F  0.44936824  0.43490921  0.15565041    -0.15200
F270        F  0.44963276  0.37846836  0.10747105    -0.12800
C271        C  0.08167022  0.05395349  0.16998714     0.25200
C272        C  0.06630725  0.06955624  0.19936495    -0.22900
C273        C  0.08097360  0.11308970  0.20129005     0.20100
C274        C  0.11141231  0.14066484  0.17505922     0.25200
C275        C  0.12626443  0.12500837  0.14505873    -0.22800
C276        C  0.11073517  0.08120984  0.14274521     0.20100
F277        F  0.12263076  0.06440970  0.11347879    -0.12800
F278        F  0.06875399  0.01213671  0.16763656    -0.15200
F279        F  0.12660146  0.18280577  0.17935258    -0.15200
F280        F  0.06500339  0.12894352  0.22773820    -0.12800
C281        C  0.35503367  0.38206405  0.81414758     0.25200
C282        C  0.36762888  0.36490866  0.84476232    -0.22900
C283        C  0.41112341  0.37956919  0.85025058     0.20100
C284        C  0.44106624  0.40999297  0.82551229     0.25200
C285        C  0.42851725  0.42734196  0.79526774    -0.22800
C286        C  0.38524898  0.41356494  0.79012605     0.20100
F287        F  0.37223239  0.43135418  0.76255571    -0.12800
F288        F  0.31345869  0.36838562  0.80742861    -0.15200
F289        F  0.48254008  0.42240281  0.83114271    -0.15200
F290        F  0.42505304  0.36576305  0.88057605    -0.12800
C291        C  0.47260327  0.09107857  0.84970898     0.25200
C292        C  0.00093459  0.13434341  0.84297734    -0.22900
C293        C  0.02919281  0.14574897  0.81152782     0.20100
C294        C  0.02924128  0.11461777  0.78765115     0.25200
C295        C  0.50000470  0.07157136  0.79390179    -0.22800
C296        C  0.47170757  0.06024973  0.82509709     0.20100
F297        F  0.44278669  0.01910141  0.83176262    -0.12800
F298        F  0.44657137  0.07824377  0.88103100    -0.15200
F299        F  0.05862628  0.12657803  0.75912785    -0.15200
F300        F  0.05670076  0.18702258  0.80376681    -0.12800
C301        C  0.11885683  0.47219059  0.81271221     0.25200
C302        C  0.13600307  0.50133435  0.84364232    -0.22900
C303        C  0.12087110  0.02972459  0.84968755     0.20100
C304        C  0.08994592  0.02937012  0.82522591     0.25200
C305        C  0.07241576  0.49992970  0.79474279    -0.22800
C306        C  0.08682999  0.47094561  0.78902518     0.20100
F307        F  0.06917654  0.44060375  0.76119928    -0.12800
F308        F  0.13309134  0.44484020  0.80532050    -0.15200
F309        F  0.07725934  0.05816934  0.83134086    -0.15200
F310        F  0.13472021  0.05693484  0.88027591    -0.12800
C311        C  0.41353346  0.38329109  0.71060563     0.25200
C312        C  0.42717684  0.42645686  0.70505476    -0.22900
C313        C  0.40923124  0.43827318  0.67470624     0.20100
C314        C  0.37840954  0.40780044  0.65035863     0.25200
C315        C  0.36380802  0.36444452  0.65634029    -0.22800
C316        C  0.38167533  0.35255080  0.68690803     0.20100
F317        F  0.36828467  0.31114896  0.69394313    -0.12800
F318        F  0.43173416  0.37085083  0.73829424    -0.15200
F319        F  0.36405674  0.42105559  0.61993711    -0.15200
F320        F  0.42134474  0.47955801  0.66863871    -0.12800
C321        C  0.46790948  0.08286441  0.70878612     0.25200
C322        C  0.99788924  0.06966290  0.70362519    -0.22900
C323        C  0.02684271  0.08680188  0.67292184     0.20100
C324        C  0.02603089  0.11655367  0.64788047     0.25200
C325        C  0.99696344  0.13095355  0.65357407    -0.22800
C326        C  0.46791734  0.11376035  0.68443654     0.20100
F327        F  0.43965093  0.12697386  0.69123529    -0.12800
F328        F  0.43792590  0.06513736  0.73676662    -0.15200
F329        F  0.05291876  0.13013632  0.61717790    -0.15200
F330        F  0.05635748  0.07497018  0.66720835    -0.12800
C331        C  0.11436771  0.03016148  0.70989421     0.25200
C332        C  0.07151523  0.99964182  0.70480314    -0.22900
C333        C  0.05998771  0.46952784  0.67508130     0.20100
C334        C  0.09064246  0.46972098  0.65085363     0.25200
C335        C  0.13387404  0.99928251  0.65660416    -0.22800
C336        C  0.14537502  0.02947929  0.68651425     0.20100
F337        F  0.18660736  0.05826741  0.69324509    -0.12800
F338        F  0.12615842  0.06119302  0.73691369    -0.15200
F339        F  0.07767217  0.44177147  0.62084886    -0.15200
F340        F  0.01890460  0.43950724  0.66960153    -0.12800
C341        C  0.49988256  0.49940699  0.78736281     0.47100
H342        H  0.50021224  0.49976684  0.81967700    -0.01900
C343        C  0.99905206  0.99840864  0.71189856     0.47100
H344        H  0.99877522  0.99796051  0.67957797    -0.01900
C345        C  0.46124724  0.96039381  0.76994653    -0.15600
C346        C  0.49936278  0.53778500  0.76918593    -0.15400
C347        C  0.03863725  0.99945118  0.76974279    -0.15800
C348        C  0.46078441  0.95984483  0.72991781    -0.15800
C349        C  0.99870494  0.53710070  0.72915717    -0.15300
C350        C  0.03812664  0.49907136  0.72974753    -0.15600
O351        O  0.24667291  0.63688732  0.04708396    -0.77500
C352        C  0.25599010  0.57770277  0.93729489     0.84200
O353        O  0.36454022  0.60324134  0.04910362    -0.78000
O354        O  0.39382138  0.67642728  0.91951079    -0.79500
O355        O  0.33349399  0.75172249  0.97572236    -0.79300
O356        O  0.29063603  0.70584275  0.05524511    -0.77900
Zn357      Zn  0.28331807  0.61782724  0.01833998     1.55700
O358        O  0.32579815  0.71596608  0.92065002    -0.79300
Cd359      Cd  0.34034412  0.71767816  0.01999615     1.59700
Cd360      Cd  0.38367734  0.65938700  0.01870847     1.59600
O361        O  0.39658547  0.75366154  0.04983601    -0.79300
O362        O  0.33499581  0.66460861  0.99883143    -1.89800
Cd363      Cd  0.33511419  0.66625288  0.93993435     1.59900
O364        O  0.42224576  0.70950621  0.05378719    -0.79200
O365        O  0.28599789  0.60823165  0.91872420    -0.77900
C366        C  0.32739038  0.57655623  0.06046520     0.84600
C367        C  0.25477734  0.67297090  0.06002761     0.84300
O368        O  0.25163108  0.57922492  0.97391873    -0.76800
C369        C  0.32635984  0.74662389  0.93925722     0.85100
O370        O  0.29558340  0.58092282  0.05265992    -0.76900
C371        C  0.42478513  0.74492877  0.06096410     0.85200
C372        C  0.42443068  0.67552237  0.93702708     0.85600
O373        O  0.42327711  0.66700797  0.97314397    -0.79400
C374        C  0.33631696  0.83442184  0.87286097     0.04800
C375        C  0.30562732  0.84254362  0.88932463    -0.11400
C376        C  0.28123930  0.81854769  0.92082614     0.02300
C377        C  0.28782682  0.78659487  0.93611711    -0.09900
C378        C  0.31701473  0.77696565  0.91926709     0.04700
C379        C  0.34027618  0.80009428  0.88690761    -0.09300
H380        H  0.30270968  0.86926772  0.87960010     0.10300
H381        H  0.27027654  0.76924875  0.96160265     0.07900
H382        H  0.36343897  0.79320458  0.87441553     0.07700
O383        O  0.16820223  0.91954641  0.97440561    -0.76900
C384        C  0.07950842  0.82434613  0.06005984     0.84200
O385        O  0.25457389  0.89434774  0.05499411    -0.78000
O386        O  0.14070863  0.74318553  0.04671662    -0.79500
O387        O  0.11135643  0.78359181  0.91959037    -0.79300
O388        O  0.17694455  0.89163536  0.91983632    -0.77900
Zn389      Zn  0.16194458  0.88104014  0.01865937     1.55700
O390        O  0.08095175  0.74826155  0.97410794    -0.79300
Cd391      Cd  0.16905551  0.83384338  0.94084475     1.59700
Cd392      Cd  0.22155182  0.83973490  0.02167317     1.59600
O393        O  0.21976991  0.82606019  0.92253412    -0.79300
O394        O  0.16861015  0.83471574  0.99964178    -1.89800
Cd395      Cd  0.12109622  0.78087451  0.01906142     1.59900
O396        O  0.25758446  0.83671670  0.97716337    -0.79200
O397        O  0.08346701  0.79191053  0.05527609    -0.77900
C398        C  0.24439433  0.92196117  0.06443961     0.84600
C399        C  0.17555096  0.92150412  0.93805092     0.84300
O400        O  0.10632086  0.86055939  0.04679054    -0.76800
C401        C  0.08038766  0.75328776  0.93750435     0.85100
O402        O  0.20948675  0.91894259  0.05396984    -0.76900
C403        C  0.25157567  0.82852099  0.94088128     0.85200
C404        C  0.17716508  0.75128872  0.05850593     0.85600
O405        O  0.20988962  0.78734153  0.05374936    -0.79400
C406        C  0.15703323  0.65426062  0.11601092     0.04800
C407        C  0.19129764  0.64950838  0.10337565    -0.11400
C408        C  0.22099212  0.67864550  0.07729056     0.02300
C409        C  0.21720105  0.71325867  0.06495789    -0.09900
C410        C  0.18248758  0.71733269  0.07583722     0.04700
C411        C  0.15202958  0.68733038  0.10060602    -0.09300
H412        H  0.19547689  0.62392529  0.11423619     0.10300
H413        H  0.23993080  0.73567889  0.04453978     0.07900
H414        H  0.12457253  0.68997178  0.10803231     0.07700
C415        C  0.16735616  0.00046464  0.87122385     0.04800
C416        C  0.20154744  0.53860115  0.88537913    -0.11400
C417        C  0.22572952  0.53828897  0.91708052     0.02300
C418        C  0.21723221  0.99946441  0.93318316    -0.09900
C419        C  0.18527678  0.96109476  0.91788306     0.04700
C420        C  0.16027993  0.96167873  0.88701167    -0.09300
H421        H  0.20762401  0.56863165  0.87347286     0.10300
H422        H  0.23526864  0.99913224  0.95827190     0.07900
H423        H  0.13353547  0.93216313  0.87736496     0.07700
C424        C  0.00148221  0.84156264  0.11871473     0.04800
C425        C  0.46324772  0.80694370  0.10568397    -0.11400
C426        C  0.46367243  0.77792267  0.07938327     0.02300
C427        C  0.00234133  0.78286688  0.06699751    -0.09900
C428        C  0.04050129  0.81810353  0.07828220     0.04700
C429        C  0.04008547  0.84768898  0.10388746    -0.09300
H430        H  0.43324457  0.80252262  0.11595298     0.10300
H431        H  0.50265040  0.76083872  0.04596755     0.07900
H432        H  0.06960080  0.87541896  0.11199858     0.07700
C433        C  0.00193254  0.66673095  0.87006210     0.04800
C434        C  0.46366976  0.66242030  0.88421895    -0.11400
C435        C  0.46376773  0.68622123  0.91612360     0.02300
C436        C  0.00245322  0.71677362  0.93209533    -0.09900
C437        C  0.04103158  0.72384682  0.91668175     0.04700
C438        C  0.04070223  0.69860584  0.88572355    -0.09300
H439        H  0.43367012  0.63833341  0.87239792     0.10300
H440        H  0.00250666  0.73456164  0.95741711     0.07900
H441        H  0.07032980  0.70159202  0.87607816     0.07700
C442        C  0.33555519  0.99800043  0.12858657     0.04800
C443        C  0.34581023  0.53638429  0.10947155    -0.11400
C444        C  0.31919239  0.53736150  0.08030273     0.02300
C445        C  0.28419962  0.99957538  0.06799522    -0.09900
C446        C  0.27556675  0.96099532  0.08411224     0.04700
C447        C  0.29960513  0.96045090  0.11564643    -0.09300
H448        H  0.37424945  0.56544296  0.11694867     0.10300
H449        H  0.26512007  0.99994072  0.04381398     0.07900
H450        H  0.28974460  0.93049382  0.12973495     0.07700
O451        O  0.41530647  0.66456288  0.52217645    -0.76900
C452        C  0.31940362  0.57588381  0.43702957     0.84200
O453        O  0.39007334  0.75283232  0.44624722    -0.78000
O454        O  0.23831330  0.63755303  0.44996483    -0.79500
O455        O  0.28045704  0.60759060  0.57766602    -0.79300
O456        O  0.38783696  0.67220056  0.57744476    -0.77900
Zn457      Zn  0.37630746  0.65895420  0.47828132     1.55700
O458        O  0.24330888  0.57726378  0.52357886    -0.79300
Cd459      Cd  0.33013814  0.66514700  0.55715386     1.59700
Cd460      Cd  0.33506143  0.71840031  0.47831796     1.59600
O461        O  0.32254881  0.71532237  0.57768598    -0.79300
O462        O  0.32990871  0.66491865  0.49834078    -1.89800
Cd463      Cd  0.27566362  0.61738584  0.47837676     1.59900
O464        O  0.33130343  0.75326741  0.52379245    -0.79200
O465        O  0.28668339  0.57931756  0.44223625    -0.77900
C466        C  0.41747111  0.74289199  0.43546896     0.84600
C467        C  0.41751293  0.67105770  0.55873685     0.84300
O468        O  0.35577252  0.60344331  0.44965558    -0.76800
C469        C  0.24955054  0.57678600  0.56004751     0.85100
O470        O  0.41401334  0.70728384  0.44372118    -0.76900
C471        C  0.32413510  0.74705966  0.56016497     0.85200
C472        C  0.24724366  0.67451754  0.43910479     0.85600
O473        O  0.28326796  0.70682825  0.44547109    -0.79400
C474        C  0.33221661  0.83248704  0.62902255     0.04800
C475        C  0.33965287  0.80141910  0.61224302    -0.11400
C476        C  0.31442284  0.77642156  0.58131406     0.02300
C477        C  0.28177139  0.78261976  0.56713674    -0.09900
C478        C  0.27288539  0.81223014  0.58424277     0.04700
C479        C  0.29740432  0.83626563  0.61587653    -0.09300
H480        H  0.36679990  0.79876206  0.62116040     0.10300
H481        H  0.26359334  0.76478117  0.54196451     0.07900
H482        H  0.29124672  0.85994319  0.62836605     0.07700
O483        O  0.13619642  0.74686323  0.44975594    -0.76900
C484        C  0.07409220  0.75095915  0.56145540     0.84200
O485        O  0.09978253  0.86169490  0.45593721    -0.78000
O486        O  0.17328175  0.88980550  0.58258445    -0.79500
O487        O  0.24923799  0.83082507  0.52811757    -0.79300
O488        O  0.20583132  0.79057142  0.44675259    -0.77900
Zn489      Zn  0.11546004  0.78041427  0.48156016     1.55700
O490        O  0.21135512  0.82039843  0.58210669    -0.79300
Cd491      Cd  0.21597480  0.83832550  0.48359624     1.59700
Cd492      Cd  0.15723496  0.88011812  0.48310566     1.59600
O493        O  0.25199259  0.89478572  0.45513314    -0.79300
O494        O  0.16186261  0.83143522  0.50297057    -1.89800
Cd495      Cd  0.16240464  0.83079390  0.56179263     1.59900
O496        O  0.20600030  0.91763082  0.44646714    -0.79200
O497        O  0.10346895  0.78158872  0.58072660    -0.77900
C498        C  0.07227633  0.82497828  0.44422771     0.84600
C499        C  0.17306831  0.75571610  0.43846644     0.84300
O500        O  0.07699482  0.74637983  0.52503743    -0.76800
C501        C  0.24290686  0.82213516  0.56419363     0.85100
O502        O  0.07676862  0.79288164  0.44969585    -0.76900
C503        C  0.24231805  0.92140315  0.44155804     0.85200
C504        C  0.17438806  0.92109700  0.56455705     0.85600
O505        O  0.16701405  0.92018669  0.52825188    -0.79400
C506        C  0.16596860  0.49989284  0.62969215     0.04800
C507        C  0.19636637  0.53819531  0.61249848    -0.11400
C508        C  0.22097662  0.53788211  0.58144508     0.02300
C509        C  0.21477097  0.49914585  0.56737144    -0.09900
C510        C  0.18562116  0.96087815  0.58488044     0.04700
C511        C  0.16257562  0.96150753  0.61700781    -0.09300
H512        H  0.19866722  0.56785161  0.62108673     0.10300
H513        H  0.23203062  0.49868506  0.54189531     0.07900
H514        H  0.13941933  0.93183302  0.62990872     0.07700
C515        C  0.99597910  0.66206917  0.62598513     0.04800
C516        C  0.45732223  0.65501326  0.60970474    -0.11400
C517        C  0.45707968  0.68002139  0.57874636     0.02300
C518        C  0.99566364  0.71178139  0.56379104    -0.09900
C519        C  0.03428923  0.72034136  0.58060000     0.04700
C520        C  0.03421896  0.69635188  0.61245037    -0.09300
H521        H  0.42768376  0.62840798  0.61912288     0.10300
H522        H  0.99564629  0.72988547  0.53870456     0.07900
H523        H  0.06413801  0.70263254  0.62497863     0.07700
C524        C  0.49573449  0.84059611  0.37991437     0.04800
C525        C  0.03262977  0.84893442  0.40095503    -0.11400
C526        C  0.03307076  0.81837065  0.42531539     0.02300
C527        C  0.49515670  0.78157139  0.43344573    -0.09900
C528        C  0.45708123  0.77526037  0.41761317     0.04700
C529        C  0.45768667  0.80308150  0.38911280    -0.09300
H530        H  0.06141654  0.87893065  0.39878350     0.10300
H531        H  0.49486663  0.75942699  0.45474017     0.07900
H532        H  0.42826016  0.79447672  0.37451558     0.07700
C533        C  0.15698852  0.66372598  0.37477558     0.04800
C534        C  0.18647910  0.65450191  0.39278066    -0.11400
C535        C  0.21459069  0.68160092  0.42110629     0.02300
C536        C  0.21094991  0.71594053  0.43400234    -0.09900
C537        C  0.17954866  0.72344938  0.41920224     0.04700
C538        C  0.15406901  0.69879984  0.38842909    -0.09300
H539        H  0.18797028  0.62655972  0.38487246     0.10300
H540        H  0.23125127  0.73561081  0.45741569     0.07900
H541        H  0.13270871  0.70773930  0.37520048     0.07700
C542        C  0.33955534  0.49611075  0.38449431     0.04800
C543        C  0.30567328  0.95844361  0.39886156    -0.11400
C544        C  0.27503400  0.95957817  0.42236747     0.02300
C545        C  0.27838127  0.99843731  0.43162928    -0.09900
C546        C  0.31347844  0.53638018  0.41983650     0.04700
C547        C  0.34396692  0.53521251  0.39597354    -0.09300
H548        H  0.30341897  0.92834282  0.39217220     0.10300
H549        H  0.25543532  0.99923852  0.45111312     0.07900
H550        H  0.37080896  0.56453963  0.38627436     0.07700
C551        C  0.49447666  0.00016202  0.21275806     0.47100
H552        H  0.49069499  0.00133762  0.18086755    -0.01900
C553        C  0.50457279  0.00164032  0.28750881     0.47100
H554        H  0.50980791  0.00170951  0.31932898    -0.01900
C555        C  0.03429790  0.53953868  0.22703372    -0.15600
C556        C  0.45751960  0.99840459  0.23620951    -0.15400
C557        C  0.49903592  0.96274163  0.22741972    -0.15800
C558        C  0.03902734  0.54083961  0.26655256    -0.15800
C559        C  0.46246467  0.99867914  0.27601634    -0.15300
C560        C  0.50396518  0.96373094  0.26744617    -0.15600
C561        C  0.38714379  0.96710398  0.30042172     0.25200
C562        C  0.43075673  0.99520608  0.30571283    -0.22900
C563        C  0.44373296  0.51898990  0.34055879     0.20100
C564        C  0.41414492  0.51914498  0.36608023     0.25200
C565        C  0.37080654  0.99450810  0.35826838    -0.22800
C566        C  0.35751704  0.96750980  0.32579260     0.20100
F567        F  0.31572765  0.94169056  0.31828056    -0.12800
F568        F  0.37292364  0.93716243  0.27230853    -0.15200
F569        F  0.42798436  0.54268626  0.39909929    -0.15200
F570        F  0.48486550  0.54151822  0.35112581    -0.12800
C571        C  0.11339849  0.58457341  0.29092426     0.25200
C572        C  0.07185881  0.57688449  0.28863819    -0.22900
C573        C  0.06008729  0.60175361  0.31027602     0.20100
C574        C  0.08688938  0.62895458  0.33888218     0.25200
C575        C  0.12850591  0.63592751  0.34304190    -0.22800
C576        C  0.14208228  0.61509742  0.31682666     0.20100
F577        F  0.18294595  0.62403463  0.31609670    -0.12800
F578        F  0.12598632  0.56229216  0.26842640    -0.15200
F579        F  0.07073432  0.64629249  0.36355169    -0.15200
F580        F  0.02228332  0.59956224  0.30363729    -0.12800
C581        C  0.03603444  0.89979567  0.33097707     0.25200
C582        C  0.49732563  0.87107330  0.34922804    -0.22900
C583        C  0.46078767  0.87309513  0.33804793     0.20100
C584        C  0.46273306  0.90033209  0.30838870     0.25200
C585        C  0.50158756  0.92947488  0.29210744    -0.22800
C586        C  0.03843832  0.93120235  0.30619861     0.20100
F587        F  0.07706681  0.96383500  0.29657043    -0.12800
F588        F  0.07194739  0.89785245  0.33614317    -0.15200
F589        F  0.42693537  0.90064269  0.29780540    -0.15200
F590        F  0.42346641  0.85107566  0.35692476    -0.12800
C591        C  0.36818668  0.96074710  0.16510845     0.25200
C592        C  0.36326442  0.99663283  0.16033676    -0.22900
C593        C  0.38574692  0.53119392  0.18606907     0.20100
C594        C  0.41550828  0.53150127  0.21233290     0.25200
C595        C  0.42091529  0.99618774  0.21540430    -0.22800
C596        C  0.39462481  0.95988715  0.19395909     0.20100
F597        F  0.39420470  0.92311266  0.20143541    -0.12800
F598        F  0.34961439  0.92704413  0.14074245    -0.15200
F599        F  0.43962328  0.56648679  0.23413745    -0.15200
F600        F  0.37931215  0.56480191  0.18589389    -0.12800
C601        C  0.02831397  0.88641575  0.17873295     0.25200
C602        C  0.50089286  0.87216488  0.14653981    -0.22900
C603        C  0.47409760  0.88883017  0.14004603     0.20100
C604        C  0.47355080  0.91795454  0.16589247     0.25200
C605        C  0.49920713  0.93079029  0.19977151    -0.22800
C606        C  0.02844357  0.91635833  0.20412876     0.20100
F607        F  0.06057315  0.93452909  0.22988525    -0.12800
F608        F  0.05569170  0.87195777  0.18536037    -0.15200
F609        F  0.44940212  0.93492734  0.15564952    -0.15200
F610        F  0.44965775  0.87848009  0.10747418    -0.12800
C611        C  0.08165217  0.55394053  0.16999153     0.25200
C612        C  0.06628219  0.56954328  0.19936304    -0.22900
C613        C  0.08094404  0.61307577  0.20128360     0.20100
C614        C  0.11138685  0.64065080  0.17505558     0.25200
C615        C  0.12624806  0.62499480  0.14506179    -0.22800
C616        C  0.11072162  0.58119644  0.14275204     0.20100
F617        F  0.12262415  0.56439571  0.11349158    -0.12800
F618        F  0.06873902  0.51212428  0.16764524    -0.15200
F619        F  0.12657107  0.68279127  0.17934566    -0.15200
F620        F  0.06496636  0.62892846  0.22772550    -0.12800
C621        C  0.35507216  0.88210092  0.81416418     0.25200
C622        C  0.36766342  0.86494145  0.84477873    -0.22900
C623        C  0.41115708  0.87959396  0.85026401     0.20100
C624        C  0.44110170  0.91000987  0.82552065     0.25200
C625        C  0.42855584  0.92736014  0.79527443    -0.22800
C626        C  0.38528958  0.91359432  0.79013805     0.20100
F627        F  0.37227739  0.93138759  0.76256783    -0.12800
F628        F  0.31349880  0.86843262  0.80744830    -0.15200
F629        F  0.48257395  0.92241051  0.83114763    -0.15200
F630        F  0.42508437  0.86578677  0.88059050    -0.12800
C631        C  0.47257123  0.59107706  0.84970136     0.25200
C632        C  0.00091295  0.63434027  0.84297234    -0.22900
C633        C  0.02917005  0.64574067  0.81152265     0.20100
C634        C  0.02920914  0.61460595  0.78764446     0.25200
C635        C  0.49996434  0.57156172  0.79389393    -0.22800
C636        C  0.47166621  0.56024518  0.82508764     0.20100
F637        F  0.44273641  0.51909894  0.83175023    -0.12800
F638        F  0.44653814  0.57824639  0.88102258    -0.15200
F639        F  0.05859377  0.62656018  0.75912147    -0.15200
F640        F  0.05668623  0.68701256  0.80376332    -0.12800
C641        C  0.11889042  0.97218517  0.81270128     0.25200
C642        C  0.13604268  0.00133181  0.84362876    -0.22900
C643        C  0.12082148  0.52971826  0.84970524     0.20100
C644        C  0.08989574  0.52936124  0.82524171     0.25200
C645        C  0.07245615  0.99993307  0.79473288    -0.22800
C646        C  0.08686433  0.97094384  0.78901517     0.20100
F647        F  0.06920692  0.94060199  0.76118955    -0.12800
F648        F  0.13311804  0.94482872  0.80531165    -0.15200
F649        F  0.07719920  0.55815219  0.83136081    -0.15200
F650        F  0.13466230  0.55692216  0.88029844    -0.12800
C651        C  0.41355407  0.88330364  0.71061125     0.25200
C652        C  0.42720739  0.92647134  0.70505669    -0.22900
C653        C  0.40927134  0.93829022  0.67470106     0.20100
C654        C  0.37844950  0.90781880  0.65035178     0.25200
C655        C  0.36383767  0.86446183  0.65633799    -0.22800
C656        C  0.38169630  0.85256529  0.68691123     0.20100
F657        F  0.36829780  0.81116233  0.69394910    -0.12800
F658        F  0.43174577  0.87085905  0.73830490    -0.15200
F659        F  0.36410664  0.92107558  0.61992386    -0.15200
F660        F  0.42139457  0.97957640  0.66862748    -0.12800
C661        C  0.46787655  0.58285457  0.70877736     0.25200
C662        C  0.99785231  0.56964763  0.70361753    -0.22900
C663        C  0.02680502  0.58678100  0.67291299     0.20100
C664        C  0.02599765  0.61653415  0.64787069     0.25200
C665        C  0.99693740  0.63094256  0.65356574    -0.22800
C666        C  0.46789053  0.61375341  0.68442794     0.20100
F667        F  0.43962935  0.62697361  0.69122659    -0.12800
F668        F  0.43789109  0.56513021  0.73675658    -0.15200
F669        F  0.05288270  0.63011014  0.61716598    -0.15200
F670        F  0.05631501  0.57494299  0.66719930    -0.12800
C671        C  0.11433221  0.53016282  0.70989225     0.25200
C672        C  0.07148188  0.49963325  0.70480989    -0.22900
C673        C  0.06001901  0.96954167  0.67506919     0.20100
C674        C  0.09067462  0.96972835  0.65084738     0.25200
C675        C  0.13384070  0.49928778  0.65659849    -0.22800
C676        C  0.14533980  0.52948926  0.68650487     0.20100
F677        F  0.18657030  0.55829055  0.69322510    -0.12800
F678        F  0.12611970  0.56119611  0.73690948    -0.15200
F679        F  0.07770543  0.94178504  0.62083758    -0.15200
F680        F  0.01893379  0.93953186  0.66957930    -0.12800
C681        C  0.99992599  0.99941771  0.78736337     0.47100
H682        H  0.00026037  0.99977719  0.81967757    -0.01900
C683        C  0.49901681  0.49839528  0.71189793     0.47100
H684        H  0.49874182  0.49794453  0.67957731    -0.01900
C685        C  0.96120763  0.46038109  0.76994385    -0.15600
C686        C  0.99940687  0.03779800  0.76919059    -0.15400
C687        C  0.53859822  0.49944430  0.76974783    -0.15800
C688        C  0.96074985  0.45983143  0.72991588    -0.15800
C689        C  0.49874497  0.03711513  0.72916179    -0.15300
C690        C  0.53816210  0.99908071  0.72974289    -0.15600
O691        O  0.74667671  0.13689102  0.04707731    -0.77500
C692        C  0.75600285  0.07769129  0.93730205     0.84200
O693        O  0.86454296  0.10323537  0.04910706    -0.78000
O694        O  0.89382552  0.17642223  0.91951182    -0.79500
O695        O  0.83349157  0.25171576  0.97571997    -0.79300
O696        O  0.79064188  0.20584603  0.05523882    -0.77900
Zn697      Zn  0.78332377  0.11782343  0.01834497     1.55700
O698        O  0.82579110  0.21595452  0.92065028    -0.79300
Cd699      Cd  0.84034755  0.21767438  0.01999208     1.59700
Cd700      Cd  0.88368147  0.15938183  0.01871079     1.59600
O701        O  0.89658736  0.25365857  0.04983035    -0.79300
O702        O  0.83500020  0.16460317  0.99883285    -1.89800
Cd703      Cd  0.83511792  0.16624686  0.93993609     1.59900
O704        O  0.92224794  0.20950357  0.05378942    -0.79200
O705        O  0.78600730  0.10822191  0.91873024    -0.77900
C706        C  0.82739440  0.07655272  0.06047419     0.84600
C707        C  0.75478150  0.17297615  0.06001783     0.84300
O708        O  0.75164252  0.07921471  0.97392561    -0.76800
C709        C  0.82635104  0.24661245  0.93925620     0.85100
O710        O  0.79558751  0.08092136  0.05267345    -0.76900
C711        C  0.92478621  0.24492657  0.06096242     0.85200
C712        C  0.92443389  0.17551499  0.93702763     0.85600
O713        O  0.92328028  0.16700057  0.97314473    -0.79400
C714        C  0.83628620  0.33439187  0.87284720     0.04800
C715        C  0.80560218  0.34251904  0.88931417    -0.11400
C716        C  0.78122581  0.31853526  0.92082532     0.02300
C717        C  0.78781878  0.28658735  0.93612188    -0.09900
C718        C  0.81699929  0.27695016  0.91926596     0.04700
C719        C  0.84024918  0.30006807  0.88689761    -0.09300
H720        H  0.80268185  0.36924011  0.87958498     0.10300
H721        H  0.77027756  0.26925043  0.96161439     0.07900
H722        H  0.86340839  0.29317534  0.87440219     0.07700
O723        O  0.66819894  0.41955817  0.97439490    -0.76900
C724        C  0.57950714  0.32435854  0.06005119     0.84200
O725        O  0.75456663  0.39435615  0.05498701    -0.78000
O726        O  0.64071168  0.24319569  0.04671029    -0.79500
O727        O  0.61135625  0.28360466  0.91958630    -0.79300
O728        O  0.67694638  0.39164956  0.91982659    -0.77900
Zn729      Zn  0.66193995  0.38105101  0.01864843     1.55700
O730        O  0.58095411  0.24827460  0.97410494    -0.79300
Cd731      Cd  0.66905550  0.33385618  0.94083804     1.59700
Cd732      Cd  0.72154854  0.33974389  0.02166738     1.59600
O733        O  0.71976460  0.32606187  0.92253170    -0.79300
O734        O  0.66860865  0.33472737  0.99963461    -1.89800
Cd735      Cd  0.62109814  0.28088695  0.01905787     1.59900
O736        O  0.75757946  0.33671794  0.97716065    -0.79200
O737        O  0.58347044  0.29192486  0.05527324    -0.77900
C738        C  0.74438524  0.42196815  0.06443264     0.84600
C739        C  0.67554936  0.42151701  0.93804059     0.84300
O740        O  0.60631533  0.36057058  0.04677662    -0.76800
C741        C  0.58038918  0.25330000  0.93750134     0.85100
O742        O  0.70947833  0.41895020  0.05396167    -0.76900
C743        C  0.75156758  0.32851699  0.94087969     0.85200
C744        C  0.67716835  0.25129920  0.05849965     0.85600
O745        O  0.70989136  0.28735336  0.05374552    -0.79400
C746        C  0.65704482  0.15427377  0.11600559     0.04800
C747        C  0.69130657  0.14952012  0.10336666    -0.11400
C748        C  0.72099681  0.17865362  0.07727769     0.02300
C749        C  0.71720437  0.21326626  0.06494377    -0.09900
C750        C  0.68249305  0.21734277  0.07582845     0.04700
C751        C  0.65203945  0.18734329  0.10060253    -0.09300
H752        H  0.69548713  0.12393785  0.11422794     0.10300
H753        H  0.73993162  0.23568439  0.04452298     0.07900
H754        H  0.62458478  0.18998645  0.10803446     0.07700
C755        C  0.66732334  0.50047343  0.87123304     0.04800
C756        C  0.70158043  0.03859009  0.88537285    -0.11400
C757        C  0.72574554  0.03827642  0.91708771     0.02300
C758        C  0.71722891  0.49947727  0.93316759    -0.09900
C759        C  0.68526968  0.46110655  0.91787304     0.04700
C760        C  0.66025863  0.46168871  0.88701401    -0.09300
H761        H  0.70766763  0.06862124  0.87345949     0.10300
H762        H  0.73527628  0.49914616  0.95824795     0.07900
H763        H  0.63351286  0.43217173  0.87737158     0.07700
C764        C  0.50147620  0.34156978  0.11870405     0.04800
C765        C  0.96324370  0.30694481  0.10567830    -0.11400
C766        C  0.96367173  0.27792318  0.07938060     0.02300
C767        C  0.50234164  0.28287198  0.06699364    -0.09900
C768        C  0.54049943  0.31811401  0.07827340     0.04700
C769        C  0.54008049  0.34770107  0.10387455    -0.09300
H770        H  0.93323938  0.30251942  0.11594869     0.10300
H771        H  0.00265286  0.26084283  0.04596599     0.07900
H772        H  0.56959417  0.37543514  0.11198170     0.07700
C773        C  0.50194450  0.16673103  0.87006537     0.04800
C774        C  0.96367811  0.16241160  0.88422311    -0.11400
C775        C  0.96377156  0.18621523  0.91612421     0.02300
C776        C  0.50245486  0.21677553  0.93209269    -0.09900
C777        C  0.54103520  0.22385472  0.91667943     0.04700
C778        C  0.54071110  0.19861357  0.88572413    -0.09300
H779        H  0.93368032  0.13831802  0.87240473     0.10300
H780        H  0.50250535  0.23456500  0.95741223     0.07900
H781        H  0.57034143  0.20160576  0.87607941     0.07700
C782        C  0.83554527  0.49800275  0.12857855     0.04800
C783        C  0.84581636  0.03638177  0.10948072    -0.11400
C784        C  0.81919779  0.03735770  0.08031175     0.02300
C785        C  0.78419188  0.49958069  0.06798760    -0.09900
C786        C  0.77555612  0.46100078  0.08410609     0.04700
C787        C  0.79959324  0.46045480  0.11564008    -0.09300
H788        H  0.87425422  0.06544177  0.11695821     0.10300
H789        H  0.76511300  0.49994670  0.04380609     0.07900
H790        H  0.78973090  0.43049754  0.12972934     0.07700
O791        O  0.91531335  0.16455214  0.52218663    -0.76900
C792        C  0.81941404  0.07587547  0.43703271     0.84200
O793        O  0.89007070  0.25281896  0.44624680    -0.78000
O794        O  0.73831470  0.13754181  0.44998768    -0.79500
O795        O  0.78047932  0.10758779  0.57767693    -0.79300
O796        O  0.88785101  0.17220681  0.57745260    -0.77900
Zn797      Zn  0.87631498  0.15894402  0.47829024     1.55700
O798        O  0.74333462  0.07725033  0.52359059    -0.79300
Cd799      Cd  0.83014972  0.16514718  0.55716214     1.59700
Cd800      Cd  0.83506549  0.21838952  0.47832481     1.59600
O801        O  0.82254675  0.21531799  0.57768840    -0.79300
O802        O  0.82991750  0.16491029  0.49834943    -1.89800
Cd803      Cd  0.77567435  0.11737506  0.47838648     1.59900
O804        O  0.83130307  0.25326020  0.52379286    -0.79200
O805        O  0.78669412  0.07931057  0.44223782    -0.77900
C806        C  0.91746866  0.24287896  0.43546876     0.84600
C807        C  0.91752282  0.17105454  0.55874607     0.84300
O808        O  0.85578178  0.10343300  0.44966285    -0.76800
C809        C  0.74957881  0.07677681  0.56005914     0.85100
O810        O  0.91401556  0.20727394  0.44372725    -0.76900
C811        C  0.82412927  0.24705238  0.56016441     0.85200
C812        C  0.74724383  0.17450584  0.43912598     0.85600
O813        O  0.78327024  0.20681588  0.44548386    -0.79400
C814        C  0.83219074  0.33246900  0.62902405     0.04800
C815        C  0.83963295  0.30140573  0.61224328    -0.11400
C816        C  0.81441044  0.27641244  0.58130938     0.02300
C817        C  0.78176265  0.28261408  0.56712551    -0.09900
C818        C  0.77287011  0.31221932  0.58423474     0.04700
C819        C  0.79737826  0.33624527  0.61587636    -0.09300
H820        H  0.86677985  0.29874967  0.62116326     0.10300
H821        H  0.76359185  0.26478130  0.54194814     0.07900
H822        H  0.79121408  0.35991692  0.62836955     0.07700
O823        O  0.63620157  0.24686172  0.44976823    -0.76900
C824        C  0.57409771  0.25096913  0.56145882     0.84200
O825        O  0.59977351  0.36169021  0.45592211    -0.78000
O826        O  0.67327479  0.38982084  0.58257913    -0.79500
O827        O  0.74922816  0.33082146  0.52811014    -0.79300
O828        O  0.70583383  0.29057661  0.44675025    -0.77900
Zn829      Zn  0.61545955  0.28041688  0.48156045     1.55700
O830        O  0.71135044  0.32040562  0.58210075    -0.79300
Cd831      Cd  0.71596885  0.33833037  0.48359160     1.59700
Cd832      Cd  0.65722188  0.38012067  0.48310182     1.59600
O833        O  0.75198433  0.39479263  0.45513189    -0.79300
O834        O  0.66185743  0.33144209  0.50296767    -1.89800
Cd835      Cd  0.66240353  0.33080833  0.56178971     1.59900
O836        O  0.70599197  0.41763912  0.44647119    -0.79200
O837        O  0.60347229  0.28160278  0.58072748    -0.77900
C838        C  0.57227085  0.32497154  0.44421414     0.84600
C839        C  0.67307286  0.25571546  0.43847572     0.84300
O840        O  0.57699890  0.24638713  0.52504116    -0.76800
C841        C  0.74289634  0.32213132  0.56418588     0.85100
O842        O  0.57676584  0.29287718  0.44968905    -0.76900
C843        C  0.74230948  0.42141137  0.44156057     0.85200
C844        C  0.67436572  0.42110503  0.56455093     0.85600
O845        O  0.66698495  0.42018784  0.52824651    -0.79400
C846        C  0.66600282  0.99988461  0.62970323     0.04800
C847        C  0.69640326  0.03818679  0.61251268    -0.11400
C848        C  0.72101169  0.03787318  0.58145868     0.02300
C849        C  0.71480425  0.99913696  0.56738340    -0.09900
C850        C  0.68559163  0.46088709  0.58487097     0.04700
C851        C  0.66254602  0.46151650  0.61699866    -0.09300
H852        H  0.69870534  0.06784338  0.62110213     0.10300
H853        H  0.73206277  0.99867615  0.54190622     0.07900
H854        H  0.63939502  0.43184191  0.62990302     0.07700
C855        C  0.49599775  0.16207608  0.62599239     0.04800
C856        C  0.95733804  0.15501383  0.60971264    -0.11400
C857        C  0.95709049  0.18002050  0.57875472     0.02300
C858        C  0.49567134  0.21178357  0.56379843    -0.09900
C859        C  0.53429868  0.22034911  0.58060604     0.04700
C860        C  0.53423413  0.19636262  0.61245649    -0.09300
H861        H  0.92770183  0.12840607  0.61913151     0.10300
H862        H  0.49565021  0.22988599  0.53871211     0.07900
H863        H  0.56415544  0.20264910  0.62498405     0.07700
C864        C  0.99571997  0.34057704  0.37989923     0.04800
C865        C  0.53261902  0.34891852  0.40093583    -0.11400
C866        C  0.53306448  0.31835847  0.42529880     0.02300
C867        C  0.99515250  0.28155938  0.43343376    -0.09900
C868        C  0.95707447  0.27524544  0.41760559     0.04700
C869        C  0.95767409  0.30306325  0.38910423    -0.09300
H870        H  0.56140485  0.37891514  0.39876027     0.10300
H871        H  0.99486604  0.25941834  0.45473006     0.07900
H872        H  0.92824476  0.29445687  0.37451186     0.07700
C873        C  0.65700036  0.16372585  0.37478969     0.04800
C874        C  0.68648444  0.15449647  0.39279966    -0.11400
C875        C  0.71458999  0.18159027  0.42113103     0.02300
C876        C  0.71094928  0.21593080  0.43402710    -0.09900
C877        C  0.67955404  0.22344526  0.41921925     0.04700
C878        C  0.65408115  0.19880008  0.38844141    -0.09300
H879        H  0.68797650  0.12655530  0.38488932     0.10300
H880        H  0.73124747  0.23559919  0.45744283     0.07900
H881        H  0.63272581  0.20774296  0.37520726     0.07700
C882        C  0.83956829  0.99610306  0.38449514     0.04800
C883        C  0.80566217  0.45845172  0.39886297    -0.11400
C884        C  0.77502444  0.45958662  0.42237039     0.02300
C885        C  0.77837146  0.49844565  0.43163161    -0.09900
C886        C  0.81348943  0.03637225  0.41983706     0.04700
C887        C  0.84397948  0.03520484  0.39597555    -0.09300
H888        H  0.80340774  0.42835091  0.39217338     0.10300
H889        H  0.75542645  0.49924730  0.45111645     0.07900
H890        H  0.87082250  0.06453219  0.38627861     0.07700
C891        C  0.99445012  0.50015122  0.21275542     0.47100
H892        H  0.99066794  0.50132641  0.18086478    -0.01900
C893        C  0.00454715  0.50162735  0.28750625     0.47100
H894        H  0.00978265  0.50169543  0.31932622    -0.01900
C895        C  0.53432428  0.03955033  0.22703606    -0.15600
C896        C  0.95749399  0.49839367  0.23620789    -0.15400
C897        C  0.99900912  0.46273089  0.22741577    -0.15800
C898        C  0.53905325  0.04085169  0.26655488    -0.15800
C899        C  0.96243939  0.49866746  0.27601447    -0.15300
C900        C  0.00393890  0.46371815  0.26744201    -0.15600
C901        C  0.88711974  0.46710349  0.30041967     0.25200
C902        C  0.93073401  0.49519970  0.30571086    -0.22900
C903        C  0.94375186  0.01899405  0.34056217     0.20100
C904        C  0.91416058  0.01914210  0.36608434     0.25200
C905        C  0.87079039  0.49451440  0.35826558    -0.22800
C906        C  0.85749645  0.46751590  0.32579021     0.20100
F907        F  0.81570584  0.44170294  0.31827846    -0.12800
F908        F  0.87289435  0.43716167  0.27230656    -0.15200
F909        F  0.92799649  0.04267984  0.39910566    -0.15200
F910        F  0.98488386  0.04152685  0.35112991    -0.12800
C911        C  0.61342382  0.08458681  0.29092883     0.25200
C912        C  0.57188345  0.07689619  0.28864137    -0.22900
C913        C  0.56010847  0.10176126  0.31028114     0.20100
C914        C  0.58690708  0.12895889  0.33889041     0.25200
C915        C  0.62852336  0.13593251  0.34305191    -0.22800
C916        C  0.64210422  0.11510770  0.31683539     0.20100
F917        F  0.68296853  0.12404649  0.31610921    -0.12800
F918        F  0.62601528  0.06230995  0.26842902    -0.15200
F919        F  0.57074911  0.14629278  0.36356136    -0.15200
F920        F  0.52230425  0.09956884  0.30364129    -0.12800
C921        C  0.53601221  0.39977462  0.33095849     0.25200
C922        C  0.99730560  0.37105208  0.34921248    -0.22900
C923        C  0.96076636  0.37307415  0.33803673     0.20100
C924        C  0.96270970  0.40031463  0.30838135     0.25200
C925        C  0.00156328  0.42946043  0.29210032    -0.22800
C926        C  0.53841475  0.43118520  0.30618600     0.20100
F927        F  0.57704274  0.46382037  0.29656085    -0.12800
F928        F  0.57192423  0.39782782  0.33611632    -0.15200
F929        F  0.92691109  0.40062549  0.29780179    -0.15200
F930        F  0.92344573  0.35105116  0.35691378    -0.12800
C931        C  0.86816973  0.46074479  0.16510150     0.25200
C932        C  0.86325129  0.49663263  0.16032939    -0.22900
C933        C  0.88576162  0.03119582  0.18607478     0.20100
C934        C  0.91552788  0.03150707  0.21233527     0.25200
C935        C  0.92089124  0.49617948  0.21540322    -0.22800
C936        C  0.89460081  0.45988023  0.19395659     0.20100
F937        F  0.89417466  0.42310323  0.20143537    -0.12800
F938        F  0.84960124  0.42704491  0.14073153    -0.15200
F939        F  0.93964322  0.06649412  0.23413797    -0.15200
F940        F  0.87932357  0.06480177  0.18590146    -0.12800
C941        C  0.52830900  0.38642839  0.17871860     0.25200
C942        C  0.00088312  0.37217013  0.14652893    -0.22900
C943        C  0.97407725  0.38882423  0.14004020     0.20100
C944        C  0.97352463  0.41794375  0.16588906     0.25200
C945        C  0.99918449  0.43078404  0.19976562    -0.22800
C946        C  0.52843177  0.41636551  0.20411667     0.20100
F947        F  0.56056530  0.43454653  0.22986817    -0.12800
F948        F  0.55569784  0.37198307  0.18534063    -0.15200
F949        F  0.94936830  0.43490926  0.15565042    -0.15200
F950        F  0.94963266  0.37846835  0.10747107    -0.12800
C951        C  0.58167025  0.05395348  0.16998714     0.25200
C952        C  0.56630728  0.06955624  0.19936494    -0.22900
C953        C  0.58097363  0.11308970  0.20129002     0.20100
C954        C  0.61141240  0.14066483  0.17505925     0.25200
C955        C  0.62626448  0.12500837  0.14505877    -0.22800
C956        C  0.61073521  0.08120983  0.14274523     0.20100
F957        F  0.62263069  0.06440968  0.11347875    -0.12800
F958        F  0.56875412  0.01213672  0.16763658    -0.15200
F959        F  0.62660161  0.18280578  0.17935259    -0.15200
F960        F  0.56500351  0.12894354  0.22773823    -0.12800
C961        C  0.85503365  0.38206404  0.81414756     0.25200
C962        C  0.86762886  0.36490867  0.84476231    -0.22900
C963        C  0.91112340  0.37956921  0.85025058     0.20100
C964        C  0.94106627  0.40999296  0.82551229     0.25200
C965        C  0.92851727  0.42734197  0.79526777    -0.22800
C966        C  0.88524899  0.41356494  0.79012607     0.20100
F967        F  0.87223245  0.43135418  0.76255568    -0.12800
F968        F  0.81345865  0.36838564  0.80742862    -0.15200
F969        F  0.98254012  0.42240277  0.83114269    -0.15200
F970        F  0.92505296  0.36576305  0.88057607    -0.12800
C971        C  0.97260331  0.09107857  0.84970902     0.25200
C972        C  0.50093455  0.13434340  0.84297732    -0.22900
C973        C  0.52919282  0.14574897  0.81152784     0.20100
C974        C  0.52924127  0.11461777  0.78765113     0.25200
C975        C  0.00000470  0.07157136  0.79390180    -0.22800
C976        C  0.97170758  0.06024974  0.82509709     0.20100
F977        F  0.94278679  0.01910140  0.83176264    -0.12800
F978        F  0.94657131  0.07824377  0.88103097    -0.15200
F979        F  0.55862637  0.12657801  0.75912790    -0.15200
F980        F  0.55670068  0.18702258  0.80376680    -0.12800
C981        C  0.61885686  0.47219059  0.81271225     0.25200
C982        C  0.63600303  0.50133432  0.84364238    -0.22900
C983        C  0.62087103  0.02972457  0.84968758     0.20100
C984        C  0.58994588  0.02937010  0.82522590     0.25200
C985        C  0.57241580  0.49992971  0.79474277    -0.22800
C986        C  0.58683006  0.47094563  0.78902517     0.20100
F987        F  0.56917668  0.44060376  0.76119926    -0.12800
F988        F  0.63309146  0.44484025  0.80532051    -0.15200
F989        F  0.57725923  0.05816930  0.83134085    -0.15200
F990        F  0.63472010  0.05693484  0.88027592    -0.12800
C991        C  0.91353343  0.38329109  0.71060569     0.25200
C992        C  0.92717680  0.42645687  0.70505480    -0.22900
C993        C  0.90923127  0.43827318  0.67470620     0.20100
C994        C  0.87840963  0.40780043  0.65035859     0.25200
C995        C  0.86380803  0.36444450  0.65634032    -0.22800
C996        C  0.88167530  0.35255079  0.68690811     0.20100
F997        F  0.86828479  0.31114896  0.69394311    -0.12800
F998        F  0.93173426  0.37085086  0.73829419    -0.15200
F999        F  0.86405688  0.42105560  0.61993707    -0.15200
F1000       F  0.92134466  0.47955799  0.66863872    -0.12800
C1001       C  0.96790940  0.08286439  0.70878611     0.25200
C1002       C  0.49788929  0.06966291  0.70362519    -0.22900
C1003       C  0.52684276  0.08680188  0.67292183     0.20100
C1004       C  0.52603090  0.11655368  0.64788047     0.25200
C1005       C  0.49696344  0.13095354  0.65357407    -0.22800
C1006       C  0.96791729  0.11376036  0.68443653     0.20100
F1007       F  0.93965086  0.12697386  0.69123527    -0.12800
F1008       F  0.93792581  0.06513736  0.73676661    -0.15200
F1009       F  0.55291870  0.13013633  0.61717786    -0.15200
F1010       F  0.55635756  0.07497020  0.66720835    -0.12800
C1011       C  0.61436777  0.03016153  0.70989418     0.25200
C1012       C  0.57151528  0.99964184  0.70480312    -0.22900
C1013       C  0.55998772  0.46952784  0.67508128     0.20100
C1014       C  0.59064248  0.46972097  0.65085364     0.25200
C1015       C  0.63387409  0.99928253  0.65660417    -0.22800
C1016       C  0.64537508  0.02947932  0.68651423     0.20100
F1017       F  0.68660743  0.05826738  0.69324510    -0.12800
F1018       F  0.62615852  0.06119302  0.73691371    -0.15200
F1019       F  0.57767229  0.44177146  0.62084888    -0.15200
F1020       F  0.51890465  0.43950718  0.66960153    -0.12800
C1021       C  0.99988254  0.49940699  0.78736281     0.47100
H1022       H  0.00021228  0.49976684  0.81967700    -0.01900
C1023       C  0.49905204  0.99840861  0.71189855     0.47100
H1024       H  0.49877518  0.99796049  0.67957797    -0.01900
C1025       C  0.96124723  0.96039380  0.76994654    -0.15600
C1026       C  0.99936280  0.53778501  0.76918594    -0.15400
C1027       C  0.53863726  0.99945116  0.76974277    -0.15800
C1028       C  0.96078444  0.95984484  0.72991781    -0.15800
C1029       C  0.49870493  0.53710068  0.72915717    -0.15300
C1030       C  0.53812664  0.49907135  0.72974754    -0.15600
O1031       O  0.74667293  0.63688733  0.04708397    -0.77500
C1032       C  0.75599022  0.57770277  0.93729486     0.84200
O1033       O  0.86454015  0.60324136  0.04910361    -0.78000
O1034       O  0.89382145  0.67642729  0.91951075    -0.79500
O1035       O  0.83349410  0.75172253  0.97572235    -0.79300
O1036       O  0.79063611  0.70584275  0.05524511    -0.77900
Zn1037     Zn  0.78331802  0.61782724  0.01833998     1.55700
O1038       O  0.82579804  0.71596602  0.92065002    -0.79300
Cd1039     Cd  0.84034424  0.71767817  0.01999615     1.59700
Cd1040     Cd  0.88367739  0.65938700  0.01870846     1.59600
O1041       O  0.89658556  0.75366160  0.04983600    -0.79300
O1042       O  0.83499583  0.66460858  0.99883144    -1.89800
Cd1043     Cd  0.83511430  0.66625289  0.93993434     1.59900
O1044       O  0.92224574  0.70950618  0.05378722    -0.79200
O1045       O  0.78599804  0.60823164  0.91872420    -0.77900
C1046       C  0.82739032  0.57655623  0.06046520     0.84600
C1047       C  0.75477739  0.67297091  0.06002762     0.84300
O1048       O  0.75163118  0.57922491  0.97391870    -0.76800
C1049       C  0.82635980  0.74662386  0.93925723     0.85100
O1050       O  0.79558332  0.58092279  0.05265995    -0.76900
C1051       C  0.92478517  0.74492878  0.06096410     0.85200
C1052       C  0.92443073  0.67552236  0.93702707     0.85600
O1053       O  0.92327714  0.66700798  0.97314397    -0.79400
C1054       C  0.83631695  0.83442187  0.87286102     0.04800
C1055       C  0.80562726  0.84254359  0.88932462    -0.11400
C1056       C  0.78123921  0.81854764  0.92082609     0.02300
C1057       C  0.78782674  0.78659485  0.93611709    -0.09900
C1058       C  0.81701467  0.77696564  0.91926712     0.04700
C1059       C  0.84027620  0.80009429  0.88690766    -0.09300
H1060       H  0.80270963  0.86926768  0.87960007     0.10300
H1061       H  0.77027644  0.76924874  0.96160262     0.07900
H1062       H  0.86343893  0.79320463  0.87441565     0.07700
O1063       O  0.66820237  0.91954645  0.97440563    -0.76900
C1064       C  0.57950837  0.82434612  0.06005983     0.84200
O1065       O  0.75457404  0.89434773  0.05499411    -0.78000
O1066       O  0.64070855  0.74318550  0.04671664    -0.79500
O1067       O  0.61135638  0.78359181  0.91959038    -0.79300
O1068       O  0.67694446  0.89163534  0.91983627    -0.77900
Zn1069     Zn  0.66194454  0.88104014  0.01865938     1.55700
O1070       O  0.58095176  0.74826157  0.97410795    -0.79300
Cd1071     Cd  0.66905541  0.83384339  0.94084476     1.59700
Cd1072     Cd  0.72155191  0.83973491  0.02167316     1.59600
O1073       O  0.71976983  0.82606020  0.92253417    -0.79300
O1074       O  0.66861016  0.83471577  0.99964180    -1.89800
Cd1075     Cd  0.62109627  0.78087451  0.01906142     1.59900
O1076       O  0.75758451  0.83671670  0.97716335    -0.79200
O1077       O  0.58346699  0.79191053  0.05527606    -0.77900
C1078       C  0.74439445  0.92196115  0.06443959     0.84600
C1079       C  0.67555099  0.92150414  0.93805093     0.84300
O1080       O  0.60632079  0.86055939  0.04679054    -0.76800
C1081       C  0.58038764  0.75328774  0.93750436     0.85100
O1082       O  0.70948686  0.91894256  0.05396983    -0.76900
C1083       C  0.75157564  0.82852099  0.94088127     0.85200
C1084       C  0.67716500  0.75128870  0.05850594     0.85600
O1085       O  0.70988954  0.78734152  0.05374936    -0.79400
C1086       C  0.65703319  0.65426062  0.11601090     0.04800
C1087       C  0.69129761  0.64950840  0.10337562    -0.11400
C1088       C  0.72099214  0.67864552  0.07729056     0.02300
C1089       C  0.71720102  0.71325867  0.06495789    -0.09900
C1090       C  0.68248753  0.71733268  0.07583721     0.04700
C1091       C  0.65202959  0.68733039  0.10060602    -0.09300
H1092       H  0.69547683  0.62392522  0.11423619     0.10300
H1093       H  0.73993079  0.73567893  0.04453974     0.07900
H1094       H  0.62457244  0.68997181  0.10803237     0.07700
C1095       C  0.66735616  0.00046466  0.87122388     0.04800
C1096       C  0.70154740  0.53860117  0.88537917    -0.11400
C1097       C  0.72572957  0.53828898  0.91708050     0.02300
C1098       C  0.71723219  0.99946441  0.93318317    -0.09900
C1099       C  0.68527678  0.96109477  0.91788308     0.04700
C1100       C  0.66027997  0.96167876  0.88701167    -0.09300
H1101       H  0.70762394  0.56863168  0.87347294     0.10300
H1102       H  0.73526862  0.99913222  0.95827199     0.07900
H1103       H  0.63353550  0.93216309  0.87736489     0.07700
C1104       C  0.50148219  0.84156264  0.11871474     0.04800
C1105       C  0.96324774  0.80694366  0.10568399    -0.11400
C1106       C  0.96367249  0.77792264  0.07938328     0.02300
C1107       C  0.50234127  0.78286690  0.06699751    -0.09900
C1108       C  0.54050124  0.81810351  0.07828220     0.04700
C1109       C  0.54008545  0.84768895  0.10388749    -0.09300
H1110       H  0.93324461  0.80252256  0.11595300     0.10300
H1111       H  0.00265050  0.76083874  0.04596755     0.07900
H1112       H  0.56960076  0.87541886  0.11199866     0.07700
C1113       C  0.50193251  0.66673096  0.87006208     0.04800
C1114       C  0.96366982  0.66242031  0.88421898    -0.11400
C1115       C  0.96376775  0.68622120  0.91612361     0.02300
C1116       C  0.50245322  0.71677362  0.93209530    -0.09900
C1117       C  0.54103156  0.72384676  0.91668176     0.04700
C1118       C  0.54070224  0.69860579  0.88572354    -0.09300
H1119       H  0.93367011  0.63833332  0.87239791     0.10300
H1120       H  0.50250672  0.73456170  0.95741704     0.07900
H1121       H  0.57032970  0.70159194  0.87607819     0.07700
C1122       C  0.83555516  0.99800045  0.12858660     0.04800
C1123       C  0.84581018  0.53638428  0.10947157    -0.11400
C1124       C  0.81919240  0.53736151  0.08030270     0.02300
C1125       C  0.78419967  0.99957534  0.06799517    -0.09900
C1126       C  0.77556686  0.96099530  0.08411218     0.04700
C1127       C  0.79960518  0.96045090  0.11564642    -0.09300
H1128       H  0.87424945  0.56544302  0.11694872     0.10300
H1129       H  0.76512014  0.99994065  0.04381388     0.07900
H1130       H  0.78974463  0.93049385  0.12973495     0.07700
O1131       O  0.91530642  0.66456288  0.52217648    -0.76900
C1132       C  0.81940358  0.57588381  0.43702957     0.84200
O1133       O  0.89007322  0.75283231  0.44624721    -0.78000
O1134       O  0.73831331  0.63755304  0.44996478    -0.79500
O1135       O  0.78045707  0.60759054  0.57766600    -0.79300
O1136       O  0.88783687  0.67220057  0.57744477    -0.77900
Zn1137     Zn  0.87630752  0.65895420  0.47828131     1.55700
O1138       O  0.74330877  0.57726382  0.52357888    -0.79300
Cd1139     Cd  0.83013806  0.66514700  0.55715385     1.59700
Cd1140     Cd  0.83506135  0.71840029  0.47831796     1.59600
O1141       O  0.82254866  0.71532232  0.57768598    -0.79300
O1142       O  0.82990875  0.66491864  0.49834076    -1.89800
Cd1143     Cd  0.77566358  0.61738585  0.47837677     1.59900
O1144       O  0.83130352  0.75326744  0.52379246    -0.79200
O1145       O  0.78668333  0.57931756  0.44223626    -0.77900
C1146       C  0.91747100  0.74289199  0.43546895     0.84600
C1147       C  0.91751285  0.67105769  0.55873688     0.84300
O1148       O  0.85577247  0.60344330  0.44965558    -0.76800
C1149       C  0.74955050  0.57678599  0.56004751     0.85100
O1150       O  0.91401327  0.70728386  0.44372117    -0.76900
C1151       C  0.82413510  0.74705967  0.56016497     0.85200
C1152       C  0.74724360  0.67451754  0.43910478     0.85600
O1153       O  0.78326787  0.70682828  0.44547111    -0.79400
C1154       C  0.83221664  0.83248705  0.62902256     0.04800
C1155       C  0.83965291  0.80141914  0.61224298    -0.11400
C1156       C  0.81442288  0.77642160  0.58131403     0.02300
C1157       C  0.78177137  0.78261976  0.56713676    -0.09900
C1158       C  0.77288536  0.81223010  0.58424283     0.04700
C1159       C  0.79740432  0.83626562  0.61587656    -0.09300
H1160       H  0.86679995  0.79876209  0.62116035     0.10300
H1161       H  0.76359333  0.76478119  0.54196457     0.07900
H1162       H  0.79124671  0.85994314  0.62836609     0.07700
O1163       O  0.63619645  0.74686320  0.44975600    -0.76900
C1164       C  0.57409222  0.75095916  0.56145539     0.84200
O1165       O  0.59978263  0.86169490  0.45593722    -0.78000
O1166       O  0.67328164  0.88980544  0.58258447    -0.79500
O1167       O  0.74923805  0.83082507  0.52811759    -0.79300
O1168       O  0.70583135  0.79057144  0.44675256    -0.77900
Zn1169     Zn  0.61546013  0.78041426  0.48156017     1.55700
O1170       O  0.71135512  0.82039844  0.58210666    -0.79300
Cd1171     Cd  0.71597486  0.83832548  0.48359626     1.59700
Cd1172     Cd  0.65723505  0.88011812  0.48310567     1.59600
O1173       O  0.75199252  0.89478571  0.45513320    -0.79300
O1174       O  0.66186268  0.83143521  0.50297057    -1.89800
Cd1175     Cd  0.66240470  0.83079391  0.56179262     1.59900
O1176       O  0.70600027  0.91763083  0.44646716    -0.79200
O1177       O  0.60346905  0.78158868  0.58072659    -0.77900
C1178       C  0.57227642  0.82497828  0.44422771     0.84600
C1179       C  0.67306833  0.75571612  0.43846644     0.84300
O1180       O  0.57699478  0.74637988  0.52503741    -0.76800
C1181       C  0.74290686  0.82213515  0.56419364     0.85100
O1182       O  0.57676872  0.79288164  0.44969584    -0.76900
C1183       C  0.74231801  0.92140315  0.44155810     0.85200
C1184       C  0.67438806  0.92109699  0.56455706     0.85600
O1185       O  0.66701418  0.92018673  0.52825186    -0.79400
C1186       C  0.66596857  0.49989283  0.62969215     0.04800
C1187       C  0.69636630  0.53819532  0.61249846    -0.11400
C1188       C  0.72097658  0.53788212  0.58144509     0.02300
C1189       C  0.71477102  0.49914589  0.56737144    -0.09900
C1190       C  0.68562115  0.96087815  0.58488043     0.04700
C1191       C  0.66257559  0.96150753  0.61700778    -0.09300
H1192       H  0.69866712  0.56785156  0.62108672     0.10300
H1193       H  0.73203068  0.49868512  0.54189543     0.07900
H1194       H  0.63941932  0.93183302  0.62990868     0.07700
C1195       C  0.49597911  0.66206916  0.62598514     0.04800
C1196       C  0.95732223  0.65501324  0.60970471    -0.11400
C1197       C  0.95707962  0.68002139  0.57874638     0.02300
C1198       C  0.49566369  0.71178137  0.56379102    -0.09900
C1199       C  0.53428927  0.72034136  0.58060003     0.04700
C1200       C  0.53421892  0.69635186  0.61245038    -0.09300
H1201       H  0.92768375  0.62840789  0.61912284     0.10300
H1202       H  0.49564637  0.72988545  0.53870454     0.07900
H1203       H  0.56413810  0.70263255  0.62497872     0.07700
C1204       C  0.99573443  0.84059613  0.37991437     0.04800
C1205       C  0.53262981  0.84893442  0.40095506    -0.11400
C1206       C  0.53307085  0.81837067  0.42531540     0.02300
C1207       C  0.99515660  0.78157140  0.43344574    -0.09900
C1208       C  0.95708113  0.77526039  0.41761318     0.04700
C1209       C  0.95768657  0.80308152  0.38911278    -0.09300
H1210       H  0.56141661  0.87893074  0.39878356     0.10300
H1211       H  0.99486652  0.75942700  0.45474018     0.07900
H1212       H  0.92826015  0.79447676  0.37451559     0.07700
C1213       C  0.65698843  0.66372598  0.37477559     0.04800
C1214       C  0.68647898  0.65450189  0.39278067    -0.11400
C1215       C  0.71459058  0.68160087  0.42110631     0.02300
C1216       C  0.71094984  0.71594050  0.43400233    -0.09900
C1217       C  0.67954863  0.72344939  0.41920222     0.04700
C1218       C  0.65406893  0.69879985  0.38842910    -0.09300
H1219       H  0.68797016  0.62655970  0.38487245     0.10300
H1220       H  0.73125121  0.73561083  0.45741568     0.07900
H1221       H  0.63270865  0.70773936  0.37520050     0.07700
C1222       C  0.83955533  0.49611077  0.38449427     0.04800
C1223       C  0.80567325  0.95844360  0.39886159    -0.11400
C1224       C  0.77503399  0.95957815  0.42236751     0.02300
C1225       C  0.77838122  0.99843729  0.43162925    -0.09900
C1226       C  0.81347839  0.53638017  0.41983650     0.04700
C1227       C  0.84396688  0.53521253  0.39597349    -0.09300
H1228       H  0.80341891  0.92834271  0.39217219     0.10300
H1229       H  0.75543525  0.99923848  0.45111303     0.07900
H1230       H  0.87080888  0.56453965  0.38627430     0.07700
C1231       C  0.99447660  0.00016202  0.21275806     0.47100
H1232       H  0.99069494  0.00133765  0.18086756    -0.01900
C1233       C  0.00457271  0.00164032  0.28750881     0.47100
H1234       H  0.00980779  0.00170950  0.31932899    -0.01900
C1235       C  0.53429793  0.53953868  0.22703373    -0.15600
C1236       C  0.95751955  0.99840462  0.23620950    -0.15400
C1237       C  0.99903582  0.96274161  0.22741973    -0.15800
C1238       C  0.53902736  0.54083959  0.26655256    -0.15800
C1239       C  0.96246463  0.99867919  0.27601633    -0.15300
C1240       C  0.00396507  0.96373092  0.26744617    -0.15600
C1241       C  0.88714372  0.96710394  0.30042174     0.25200
C1242       C  0.93075666  0.99520608  0.30571283    -0.22900
C1243       C  0.94373299  0.51898993  0.34055879     0.20100
C1244       C  0.91414493  0.51914499  0.36608024     0.25200
C1245       C  0.87080650  0.99450807  0.35826841    -0.22800
C1246       C  0.85751698  0.96750978  0.32579261     0.20100
F1247       F  0.81572759  0.94169059  0.31828056    -0.12800
F1248       F  0.87292355  0.93716242  0.27230851    -0.15200
F1249       F  0.92798430  0.54268628  0.39909930    -0.15200
F1250       F  0.98486554  0.54151818  0.35112581    -0.12800
C1251       C  0.61339846  0.58457340  0.29092426     0.25200
C1252       C  0.57185880  0.57688448  0.28863819    -0.22900
C1253       C  0.56008729  0.60175360  0.31027602     0.20100
C1254       C  0.58688938  0.62895458  0.33888217     0.25200
C1255       C  0.62850587  0.63592752  0.34304189    -0.22800
C1256       C  0.64208224  0.61509742  0.31682666     0.20100
F1257       F  0.68294590  0.62403466  0.31609671    -0.12800
F1258       F  0.62598628  0.56229215  0.26842638    -0.15200
F1259       F  0.57073435  0.64629249  0.36355172    -0.15200
F1260       F  0.52228335  0.59956222  0.30363727    -0.12800
C1261       C  0.53603452  0.89979568  0.33097712     0.25200
C1262       C  0.99732556  0.87107332  0.34922804    -0.22900
C1263       C  0.96078760  0.87309514  0.33804792     0.20100
C1264       C  0.96273299  0.90033208  0.30838869     0.25200
C1265       C  0.00158750  0.92947488  0.29210741    -0.22800
C1266       C  0.53843837  0.93120239  0.30619871     0.20100
F1267       F  0.57706681  0.96383503  0.29657047    -0.12800
F1268       F  0.57194747  0.89785244  0.33614317    -0.15200
F1269       F  0.92693531  0.90064269  0.29780541    -0.15200
F1270       F  0.92346633  0.85107567  0.35692475    -0.12800
C1271       C  0.86818659  0.96074708  0.16510849     0.25200
C1272       C  0.86326435  0.99663283  0.16033681    -0.22900
C1273       C  0.88574687  0.53119393  0.18606910     0.20100
C1274       C  0.91550832  0.53150130  0.21233287     0.25200
C1275       C  0.92091523  0.99618773  0.21540430    -0.22800
C1276       C  0.89462474  0.95988713  0.19395911     0.20100
F1277       F  0.89420480  0.92311270  0.20143537    -0.12800
F1278       F  0.84961429  0.92704413  0.14074246    -0.15200
F1279       F  0.93962341  0.56648680  0.23413742    -0.15200
F1280       F  0.87931206  0.56480190  0.18589391    -0.12800
C1281       C  0.52831393  0.88641573  0.17873296     0.25200
C1282       C  0.00089284  0.87216485  0.14653981    -0.22900
C1283       C  0.97409754  0.88883012  0.14004606     0.20100
C1284       C  0.97355078  0.91795450  0.16589249     0.25200
C1285       C  0.99920712  0.93079027  0.19977153    -0.22800
C1286       C  0.52844353  0.91635831  0.20412877     0.20100
F1287       F  0.56057308  0.93452909  0.22988528    -0.12800
F1288       F  0.55569164  0.87195775  0.18536040    -0.15200
F1289       F  0.94940218  0.93492739  0.15564950    -0.15200
F1290       F  0.94965766  0.87848008  0.10747421    -0.12800
C1291       C  0.58165222  0.55394054  0.16999163     0.25200
C1292       C  0.56628227  0.56954330  0.19936312    -0.22900
C1293       C  0.58094412  0.61307578  0.20128367     0.20100
C1294       C  0.61138689  0.64065081  0.17505563     0.25200
C1295       C  0.62624802  0.62499480  0.14506177    -0.22800
C1296       C  0.61072156  0.58119643  0.14275203     0.20100
F1297       F  0.62262404  0.56439569  0.11349154    -0.12800
F1298       F  0.56873898  0.51212426  0.16764543    -0.15200
F1299       F  0.62657098  0.68279127  0.17934564    -0.15200
F1300       F  0.56496629  0.62892843  0.22772545    -0.12800
C1301       C  0.85507212  0.88210096  0.81416422     0.25200
C1302       C  0.86766340  0.86494151  0.84477879    -0.22900
C1303       C  0.91115706  0.87959400  0.85026404     0.20100
C1304       C  0.94110172  0.91000984  0.82552066     0.25200
C1305       C  0.92855585  0.92736012  0.79527445    -0.22800
C1306       C  0.88528958  0.91359433  0.79013809     0.20100
F1307       F  0.87227746  0.93138759  0.76256780    -0.12800
F1308       F  0.81349873  0.86843263  0.80744831    -0.15200
F1309       F  0.98257398  0.92241047  0.83114761    -0.15200
F1310       F  0.92508430  0.86578677  0.88059054    -0.12800
C1311       C  0.97257121  0.59107706  0.84970133     0.25200
C1312       C  0.50091292  0.63434026  0.84297234    -0.22900
C1313       C  0.52917008  0.64574067  0.81152270     0.20100
C1314       C  0.52920918  0.61460595  0.78764450     0.25200
C1315       C  0.99996434  0.57156172  0.79389394    -0.22800
C1316       C  0.97166615  0.56024518  0.82508760     0.20100
F1317       F  0.94273632  0.51909895  0.83175021    -0.12800
F1318       F  0.94653824  0.57824639  0.88102263    -0.15200
F1319       F  0.55859372  0.62656019  0.75912143    -0.15200
F1320       F  0.55668615  0.68701256  0.80376330    -0.12800
C1321       C  0.61889050  0.97218520  0.81270127     0.25200
C1322       C  0.63604267  0.00133180  0.84362880    -0.22900
C1323       C  0.62082143  0.52971825  0.84970525     0.20100
C1324       C  0.58989574  0.52936126  0.82524167     0.25200
C1325       C  0.57245620  0.99993309  0.79473284    -0.22800
C1326       C  0.58686440  0.97094387  0.78901513     0.20100
F1327       F  0.56920687  0.94060198  0.76118957    -0.12800
F1328       F  0.63311818  0.94482876  0.80531166    -0.15200
F1329       F  0.57719912  0.55815215  0.83136080    -0.15200
F1330       F  0.63466219  0.55692215  0.88029846    -0.12800
C1331       C  0.91355421  0.88330365  0.71061122     0.25200
C1332       C  0.92720748  0.92647134  0.70505665    -0.22900
C1333       C  0.90927143  0.93829022  0.67470101     0.20100
C1334       C  0.87844956  0.90781879  0.65035175     0.25200
C1335       C  0.86383771  0.86446182  0.65633800    -0.22800
C1336       C  0.88169641  0.85256529  0.68691122     0.20100
F1337       F  0.86829795  0.81116234  0.69394909    -0.12800
F1338       F  0.93174592  0.87085906  0.73830489    -0.15200
F1339       F  0.86410658  0.92107556  0.61992392    -0.15200
F1340       F  0.92139449  0.97957637  0.66862751    -0.12800
C1341       C  0.96787658  0.58285459  0.70877735     0.25200
C1342       C  0.49785229  0.56964762  0.70361755    -0.22900
C1343       C  0.52680504  0.58678103  0.67291302     0.20100
C1344       C  0.52599767  0.61653417  0.64787071     0.25200
C1345       C  0.49693739  0.63094254  0.65356574    -0.22800
C1346       C  0.96789050  0.61375341  0.68442794     0.20100
F1347       F  0.93962928  0.62697358  0.69122658    -0.12800
F1348       F  0.93789118  0.56513020  0.73675662    -0.15200
F1349       F  0.55288265  0.63011014  0.61716595    -0.15200
F1350       F  0.55631499  0.57494297  0.66719929    -0.12800
C1351       C  0.61433214  0.53016284  0.70989223     0.25200
C1352       C  0.57148185  0.49963325  0.70480988    -0.22900
C1353       C  0.56001909  0.96954166  0.67506921     0.20100
C1354       C  0.59067470  0.96972834  0.65084741     0.25200
C1355       C  0.63384068  0.49928779  0.65659850    -0.22800
C1356       C  0.64533974  0.52948929  0.68650486     0.20100
F1357       F  0.68657020  0.55829057  0.69322511    -0.12800
F1358       F  0.62611959  0.56119612  0.73690948    -0.15200
F1359       F  0.57770556  0.94178504  0.62083759    -0.15200
F1360       F  0.51893391  0.93953184  0.66957930    -0.12800
loop_ 
_geom_bond_atom_site_label_1 
_geom_bond_atom_site_label_2 
_geom_bond_distance 
_geom_bond_site_symmetry_2 
_ccdc_geom_bond_type 
C1            H2   1.110       .  S
C1            C6   1.540   1_565  S
C1         C1027   1.537       .  S
C1          C345   1.540       .  S
C3            H4   1.111       .  S
C3          C349   1.537       .  S
C3          C688   1.537       .  S
C3          C350   1.538   1_655  S
C5          C341   1.540       .  S
C5            C8   1.375       .  D
C5          C285   1.486       .  S
C6          C689   1.375       .  D
C6          C295   1.488       .  S
C7         C1021   1.537   1_455  S
C7          C350   1.374       .  D
C7          C305   1.491       .  S
C8          C683   1.537       .  S
C8          C312   1.490       .  S
C9          C343   1.537   1_545  S
C9          C686   1.375       .  D
C9          C322   1.487       .  S
C10         C343   1.538   1_455  S
C10         C347   1.374       .  D
C10         C332   1.482       .  S
O11          C27   1.277       .  A
O11         Zn17   2.044       .  S
C12          O28   1.274       .  A
C12          O25   1.279       .  A
C12          C77   1.478       .  S
O13          C26   1.275       .  A
O13         Cd20   2.086       .  S
O14          C32   1.280       .  A
O14         Cd23   2.105       .  S
O15          C29   1.273       .  A
O15         Cd19   2.053   1_556  S
O16          C27   1.271       .  A
O16         Cd19   2.044       .  S
Zn17         O28   2.005   1_554  S
Zn17         O30   1.997       .  S
Zn17         O22   1.929   1_554  S
O18          C29   1.280       .  A
O18         Cd23   2.108       .  S
Cd19         O21   2.070       .  S
Cd19         O22   1.984   1_554  S
Cd20         O24   2.051       .  S
Cd20         O33   2.057   1_554  S
Cd20         O22   1.993   1_554  S
O21          C31   1.274       .  A
O22         Cd23   2.024       .  S
Cd23         O25   2.107       .  S
O24          C31   1.272       .  A
C26          O30   1.273       .  A
C26         C104   1.473       .  S
C27          C68   1.473       .  S
C29          C38   1.477       .  S
C31          C86   1.468       .  S
C32          O33   1.275       .  A
C32          C95   1.475       .  S
C34         C282   1.489       .  S
C34          C35   1.412       .  A
C34          C39   1.413       .  A
C35          C36   1.400       .  A
C35          H40   1.083       .  S
C36          C63   1.474       .  S
C36          C37   1.402       .  A
C37          C38   1.402       .  A
C37          H41   1.085       .  S
C38          C39   1.401       .  A
C39          H42   1.083       .  S
O43          C59   1.273       .  A
O43         Zn49   2.003   1_556  S
C44          O60   1.275       .  A
C44          O57   1.271       .  A
C44          C88   1.466       .  S
O45          C58   1.276       .  A
O45         Cd52   2.082       .  S
O46          C64   1.273       .  A
O46         Cd55   2.066       .  S
O47          C61   1.280       .  A
O47         Cd51   2.115       .  S
O48          C59   1.279       .  A
O48         Cd51   2.107       .  S
Zn49         O60   2.028       .  S
Zn49         O62   1.997       .  S
Zn49         O54   1.936   1_554  S
O50          C61   1.272       .  A
O50         Cd55   2.048   1_556  S
Cd51         O53   2.103       .  S
Cd51         O54   2.021       .  S
Cd52         O56   2.058   1_554  S
Cd52         O65   2.058       .  S
Cd52         O54   1.991   1_554  S
O53          C63   1.280       .  A
O54         Cd55   1.982   1_556  S
Cd55         O57   2.038       .  S
O56          C63   1.275       .  A
C58          O62   1.271       .  A
C58         C106   1.470       .  S
C59          C79   1.477       .  S
C61          C97   1.478       .  S
C64          O65   1.273       .  A
C64          C70   1.470       .  S
C66         C275   1.487       .  S
C66          C67   1.413       .  A
C66          C71   1.408       .  A
C67          C68   1.402       .  A
C67          H72   1.082       .  S
C68          C69   1.401       .  A
C69          C70   1.397       .  A
C69          H73   1.085       .  S
C70          C71   1.397       .  A
C71          H74   1.083       .  S
C75         C302   1.492       .  S
C75          C80   1.413       .  A
C75         C416   1.413       .  A
C76          C77   1.401       .  A
C76         C415   1.413       .  A
C76          H81   1.083       .  S
C77         C418   1.403   1_545  A
C78          C79   1.402       .  A
C78         C417   1.403       .  A
C78          H82   1.085       .  S
C79          C80   1.402       .  A
C80          H83   1.083       .  S
C84         C942   1.479       .  S
C84          C89   1.408       .  A
C84         C765   1.408   1_455  A
C85          C86   1.398       .  A
C85         C764   1.408       .  A
C85          H90   1.083       .  S
C86         C767   1.397       .  A
C87          C88   1.398       .  A
C87         C766   1.397   1_455  A
C87         H771   1.085       .  S
C88          C89   1.399       .  A
C89          H92   1.084       .  S
H91         C767   1.085       .  S
C93         C292   1.490       .  S
C93          C98   1.414       .  A
C93         C774   1.412   1_455  A
C94          C95   1.398       .  A
C94         C773   1.412       .  A
C94          H99   1.084       .  S
C95         C776   1.401       .  A
C96          C97   1.403       .  A
C96         C775   1.401   1_455  A
C96         H100   1.085       .  S
C97          C98   1.404       .  A
C98         H101   1.083       .  S
C102        C252   1.500       .  S
C102        C107   1.415       .  A
C102        C443   1.417       .  A
C103        C104   1.404       .  A
C103        C442   1.417   1_545  A
C103        H108   1.082       .  S
C104        C445   1.398   1_545  A
C105        C106   1.394       .  A
C105        C444   1.398       .  A
C105        H109   1.085       .  S
C106        C107   1.396       .  A
C107        H110   1.080       .  S
O111        C127   1.273       .  A
O111       Zn117   2.007       .  S
C112        O128   1.275       .  A
C112        O125   1.273       .  A
C112        C206   1.470       .  S
O113        C126   1.276       .  A
O113       Cd120   2.080       .  S
O114        C132   1.275       .  A
O114       Cd123   2.080       .  S
O115        C129   1.279       .  A
O115       Cd119   2.100       .  S
O116        C127   1.279       .  A
O116       Cd119   2.103       .  S
Zn117       O128   2.029       .  S
Zn117       O130   2.002       .  S
Zn117       O122   1.938       .  S
O118        C129   1.274       .  A
O118       Cd123   2.059       .  S
Cd119       O121   2.104       .  S
Cd119       O122   2.021       .  S
Cd120       O124   2.063       .  S
Cd120       O133   2.050       .  S
Cd120       O122   1.986       .  S
O121        C131   1.279       .  A
O122       Cd123   1.992       .  S
Cd123       O125   2.048       .  S
O124        C131   1.275       .  A
C126        O130   1.272       .  A
C126        C188   1.472       .  S
C127        C177   1.477       .  S
C129        C168   1.474       .  S
C131        C136   1.476       .  S
C132        O133   1.273       .  A
C132        C195   1.470       .  S
C134        C315   1.492       .  S
C134        C135   1.413       .  A
C134        C139   1.414       .  A
C135        C136   1.402       .  A
C135        H140   1.083       .  S
C136        C137   1.402       .  A
C137        C138   1.402       .  A
C137        H141   1.085       .  S
C138        C161   1.477       .  S
C138        C139   1.401       .  A
C139        H142   1.083       .  S
O143        C159   1.278       .  A
O143       Zn149   2.047       .  S
C144        O160   1.274       .  A
C144        O157   1.280       .  A
C144        C179   1.477       .  S
O145        C158   1.274       .  A
O145       Cd152   2.071       .  S
O146        C164   1.280       .  A
O146       Cd155   2.110       .  S
O147        C161   1.272       .  A
O147       Cd151   2.048       .  S
O148        C159   1.270       .  A
O148       Cd151   2.033       .  S
Zn149       O160   2.006       .  S
Zn149       O162   2.003       .  S
Zn149       O154   1.931       .  S
O150        C161   1.280       .  A
O150       Cd155   2.114       .  S
Cd151       O153   2.059       .  S
Cd151       O154   1.978       .  S
Cd152       O156   2.053       .  S
Cd152       O165   2.037       .  S
Cd152       O154   1.984       .  S
O153        C163   1.273       .  A
O154       Cd155   2.021       .  S
Cd155       O157   2.106       .  S
O156        C163   1.273       .  A
C158        O162   1.273       .  A
C158        C186   1.473       .  S
C159        C197   1.469       .  S
C163        C204   1.466       .  S
C164        O165   1.272       .  A
C164        C170   1.473       .  S
C166        C335   1.487       .  S
C166        C167   1.412   1_565  A
C166        C511   1.411       .  A
C167        C168   1.401       .  A
C167        H172   1.083       .  S
C168        C169   1.401   1_545  A
C169        C510   1.403       .  A
C169        H173   1.085       .  S
C170        C171   1.397       .  A
C170        C509   1.403       .  A
C171        C506   1.411       .  A
C171        H174   1.084       .  S
C175        C325   1.491       .  S
C175        C180   1.412   1_655  A
C175        C856   1.413       .  A
C176        C177   1.403       .  A
C176        C855   1.413       .  A
C176        H181   1.083       .  S
C177        C858   1.403       .  A
C178        C179   1.403   1_655  A
C178        C857   1.403       .  A
C178        H182   1.085       .  S
C179        C180   1.399       .  A
C180        H183   1.083       .  S
C184        C242   1.511       .  S
C184        C189   1.418       .  A
C184        C865   1.417       .  A
C185        C186   1.399       .  A
C185        C864   1.417   1_455  A
C185        H190   1.078       .  S
C186        C867   1.396   1_455  A
C187        C188   1.396       .  A
C187        C866   1.396       .  A
C187        H191   1.085       .  S
C188        C189   1.401       .  A
C189        H192   1.077       .  S
C193        C235   1.497       .  S
C193        C194   1.415       .  A
C193        C198   1.415       .  A
C194        C195   1.400       .  A
C194        H199   1.082       .  S
C195        C196   1.396       .  A
C196        C197   1.396       .  A
C196        H200   1.085       .  S
C197        C198   1.397       .  A
C198        H201   1.080       .  S
C202        C565   1.479       .  S
C202        C207   1.410   1_565  A
C202        C543   1.405       .  A
C203        C204   1.398       .  A
C203        C542   1.405       .  A
C203        H208   1.084       .  S
C204        C205   1.397       .  A
C205        C546   1.400       .  A
C205        H209   1.085       .  S
C206        C207   1.401       .  A
C206        C545   1.400   1_545  A
C207        H210   1.084       .  S
C211        H212   1.107       .  S
C211        C217   1.538       .  S
C211        C216   1.546       .  S
C211       C1235   1.528       .  S
C213        H214   1.109       .  S
C213        C219   1.533       .  S
C213        C220   1.535       .  S
C213       C1238   1.537       .  S
C215       C1231   1.528   1_455  S
C215        C218   1.366       .  D
C215        C272   1.483       .  S
C216        C219   1.378       .  D
C216        C255   1.477       .  S
C217        C220   1.384       .  D
C217        C265   1.506       .  S
C218       C1233   1.537       .  S
C218        C232   1.472       .  S
C219        C222   1.502       .  S
C220        C245   1.475       .  S
C221        C222   1.410       .  A
C221        C226   1.396       .  A
C221        F228   1.353       .  S
C222        C563   1.414       .  A
C223        C224   1.395       .  A
C223        C562   1.414   1_545  A
C223        F230   1.351       .  S
C224        C565   1.400   1_545  A
C224        F229   1.358       .  S
C225        C542   1.479       .  S
C225        C226   1.405       .  A
C225        C564   1.400       .  A
C226        F227   1.358       .  S
C231        C232   1.397       .  A
C231        C236   1.400       .  A
C231        F238   1.358       .  S
C232        C233   1.396       .  A
C233        C234   1.391       .  A
C233        F240   1.358       .  S
C234        C235   1.414       .  A
C234        F239   1.357       .  S
C235        C236   1.418       .  A
C236        F237   1.357       .  S
C241        C246   1.393       .  A
C241        C922   1.421   1_455  A
C241        F248   1.356       .  S
C242        C243   1.421       .  A
C242        C921   1.421       .  A
C243        C244   1.399       .  A
C243        F250   1.355       .  S
C244        C245   1.399       .  A
C244        F249   1.358       .  S
C245        C926   1.397       .  A
C246        C925   1.397       .  A
C246        F247   1.359       .  S
C251        C252   1.415       .  A
C251        C256   1.390       .  A
C251        F258   1.356       .  S
C252        C593   1.418       .  A
C253        C254   1.403       .  A
C253        C592   1.418   1_545  A
C253        F260   1.357       .  S
C254        C595   1.399   1_545  A
C254        F259   1.358       .  S
C255        C256   1.396       .  A
C255        C594   1.399       .  A
C256        F257   1.357       .  S
C261        C266   1.397       .  A
C261        C942   1.403       .  A
C261        F268   1.358       .  S
C262        C764   1.479       .  S
C262        C263   1.400       .  A
C262        C941   1.403       .  A
C263        C264   1.393       .  A
C263        F270   1.359       .  S
C264        C265   1.416       .  A
C264        F269   1.348       .  S
C265        C946   1.410       .  A
C266        C945   1.410   1_455  A
C266        F267   1.347       .  S
C271        C272   1.407       .  A
C271        C276   1.395       .  A
C271        F278   1.356       .  S
C272        C273   1.402       .  A
C273        C274   1.397       .  A
C273        F280   1.356       .  S
C274        C275   1.412       .  A
C274        F279   1.358       .  S
C275        C276   1.407       .  A
C276        F277   1.358       .  S
C281        C282   1.410       .  A
C281        C286   1.401       .  A
C281        F288   1.358       .  S
C282        C283   1.410       .  A
C283        C284   1.395       .  A
C283        F290   1.358       .  S
C284        C285   1.403       .  A
C284        F289   1.358       .  S
C285        C286   1.407       .  A
C286        F287   1.357       .  S
C291        C296   1.395       .  A
C291        C972   1.411       .  A
C291        F298   1.358       .  S
C292        C293   1.409       .  A
C292        C971   1.411   1_455  A
C293        C294   1.402       .  A
C293        F300   1.358       .  S
C294        C975   1.409       .  A
C294        F299   1.357       .  S
C295        C296   1.403       .  A
C295        C974   1.409       .  A
C296        F297   1.358       .  S
C301        C302   1.409       .  A
C301        C306   1.402       .  A
C301        F308   1.358       .  S
C302        C643   1.411       .  A
C303        C304   1.397       .  A
C303        C642   1.411       .  A
C303        F310   1.358       .  S
C304        C645   1.405   1_545  A
C304        F309   1.358       .  S
C305        C306   1.408       .  A
C305        C644   1.405       .  A
C306        F307   1.357       .  S
C311        C312   1.408       .  A
C311        C316   1.403       .  A
C311        F318   1.357       .  S
C312        C313   1.404       .  A
C313        C314   1.396       .  A
C313        F320   1.358       .  S
C314        C315   1.410       .  A
C314        F319   1.358       .  S
C315        C316   1.410       .  A
C316        F317   1.358       .  S
C321        C326   1.402       .  A
C321       C1002   1.407       .  A
C321        F328   1.357       .  S
C322        C323   1.404   1_655  A
C322       C1001   1.407       .  A
C323        C324   1.395       .  A
C323        F330   1.358       .  S
C324        C325   1.411   1_455  A
C324        F329   1.358       .  S
C325       C1006   1.410       .  A
C326       C1005   1.410       .  A
C326        F327   1.357       .  S
C331        C332   1.407   1_545  A
C331        C336   1.400       .  A
C331        F338   1.357       .  S
C332        C673   1.402       .  A
C333        C334   1.393       .  A
C333        C672   1.402       .  A
C333        F340   1.358       .  S
C334        C675   1.411       .  A
C334        F339   1.358       .  S
C335        C336   1.409   1_565  A
C335        C674   1.411       .  A
C336        F337   1.358       .  S
C341        H342   1.110       .  S
C341        C687   1.537       .  S
C341        C346   1.540       .  S
C343        H344   1.111       .  S
C343       C1028   1.537       .  S
C345        C348   1.375       .  D
C345        C625   1.486       .  S
C346       C1029   1.375       .  D
C346        C635   1.488       .  S
C347        C681   1.537   1_455  S
C347        C645   1.491       .  S
C348       C1023   1.537       .  S
C348        C652   1.490       .  S
C349       C1026   1.375       .  D
C349        C662   1.487       .  S
C350        C672   1.482       .  S
O351        C367   1.277       .  A
O351       Zn357   2.044       .  S
C352        O368   1.274       .  A
C352        O365   1.279       .  A
C352        C417   1.478       .  S
O353        C366   1.275       .  A
O353       Cd360   2.086       .  S
O354        C372   1.280       .  A
O354       Cd363   2.105       .  S
O355        C369   1.273       .  A
O355       Cd359   2.053   1_556  S
O356        C367   1.271       .  A
O356       Cd359   2.044       .  S
Zn357       O368   2.005   1_554  S
Zn357       O370   1.997       .  S
Zn357       O362   1.929   1_554  S
O358        C369   1.280       .  A
O358       Cd363   2.108       .  S
Cd359       O361   2.070       .  S
Cd359       O362   1.984   1_554  S
Cd360       O364   2.051       .  S
Cd360       O373   2.057   1_554  S
Cd360       O362   1.993   1_554  S
O361        C371   1.274       .  A
O362       Cd363   2.024       .  S
Cd363       O365   2.107       .  S
O364        C371   1.272       .  A
C366        O370   1.273       .  A
C366        C444   1.473       .  S
C367        C408   1.473       .  S
C369        C378   1.477       .  S
C371        C426   1.468       .  S
C372        O373   1.275       .  A
C372        C435   1.475       .  S
C374        C622   1.489       .  S
C374        C375   1.412       .  A
C374        C379   1.413       .  A
C375        C376   1.400       .  A
C375        H380   1.083       .  S
C376        C403   1.474       .  S
C376        C377   1.402       .  A
C377        C378   1.402       .  A
C377        H381   1.085       .  S
C378        C379   1.401       .  A
C379        H382   1.083       .  S
O383        C399   1.273       .  A
O383       Zn389   2.003   1_556  S
C384        O400   1.275       .  A
C384        O397   1.271       .  A
C384        C428   1.466       .  S
O385        C398   1.276       .  A
O385       Cd392   2.082       .  S
O386        C404   1.273       .  A
O386       Cd395   2.066       .  S
O387        C401   1.280       .  A
O387       Cd391   2.115       .  S
O388        C399   1.279       .  A
O388       Cd391   2.107       .  S
Zn389       O400   2.028       .  S
Zn389       O402   1.997       .  S
Zn389       O394   1.936   1_554  S
O390        C401   1.272       .  A
O390       Cd395   2.048   1_556  S
Cd391       O393   2.103       .  S
Cd391       O394   2.021       .  S
Cd392       O396   2.059   1_554  S
Cd392       O405   2.058       .  S
Cd392       O394   1.991   1_554  S
O393        C403   1.280       .  A
O394       Cd395   1.982   1_556  S
Cd395       O397   2.038       .  S
O396        C403   1.275       .  A
C398        O402   1.271       .  A
C398        C446   1.470       .  S
C399        C419   1.477       .  S
C401        C437   1.478       .  S
C404        O405   1.273       .  A
C404        C410   1.470       .  S
C406        C615   1.487       .  S
C406        C407   1.413       .  A
C406        C411   1.408       .  A
C407        C408   1.403       .  A
C407        H412   1.082       .  S
C408        C409   1.401       .  A
C409        C410   1.397       .  A
C409        H413   1.085       .  S
C410        C411   1.397       .  A
C411        H414   1.083       .  S
C415        C642   1.492       .  S
C415        C420   1.413   1_545  A
C416        C417   1.401       .  A
C416        H421   1.083       .  S
C418        C419   1.402       .  A
C418        H422   1.085       .  S
C419        C420   1.402       .  A
C420        H423   1.083       .  S
C424       C1282   1.479       .  S
C424       C1105   1.408   1_455  A
C424        C429   1.408       .  A
C425       C1104   1.408       .  A
C425        C426   1.398       .  A
C425        H430   1.084       .  S
C426       C1107   1.397       .  A
C427       C1106   1.397   1_455  A
C427        C428   1.398       .  A
C427       H1111   1.085       .  S
C428        C429   1.399       .  A
C429        H432   1.084       .  S
H431       C1107   1.085       .  S
C433        C632   1.490       .  S
C433       C1114   1.412   1_455  A
C433        C438   1.414       .  A
C434       C1113   1.412       .  A
C434        C435   1.398       .  A
C434        H439   1.084       .  S
C435       C1116   1.401       .  A
C436       C1115   1.401   1_455  A
C436        C437   1.403       .  A
C436        H440   1.085       .  S
C437        C438   1.404       .  A
C438        H441   1.083       .  S
C442        C592   1.500       .  S
C442        C447   1.415       .  A
C443        C444   1.404       .  A
C443        H448   1.082       .  S
C445        C446   1.394       .  A
C445        H449   1.085       .  S
C446        C447   1.396       .  A
C447        H450   1.080       .  S
O451        C467   1.273       .  A
O451       Zn457   2.007       .  S
C452        O468   1.275       .  A
C452        O465   1.273       .  A
C452        C546   1.470       .  S
O453        C466   1.276       .  A
O453       Cd460   2.080       .  S
O454        C472   1.275       .  A
O454       Cd463   2.080       .  S
O455        C469   1.279       .  A
O455       Cd459   2.100       .  S
O456        C467   1.279       .  A
O456       Cd459   2.103       .  S
Zn457       O468   2.029       .  S
Zn457       O470   2.002       .  S
Zn457       O462   1.938       .  S
O458        C469   1.274       .  A
O458       Cd463   2.059       .  S
Cd459       O461   2.104       .  S
Cd459       O462   2.021       .  S
Cd460       O464   2.063       .  S
Cd460       O473   2.050       .  S
Cd460       O462   1.986       .  S
O461        C471   1.279       .  A
O462       Cd463   1.992       .  S
Cd463       O465   2.047       .  S
O464        C471   1.275       .  A
C466        O470   1.272       .  A
C466        C528   1.472       .  S
C467        C517   1.477       .  S
C469        C508   1.474       .  S
C471        C476   1.476       .  S
C472        O473   1.273       .  A
C472        C535   1.470       .  S
C474        C655   1.492       .  S
C474        C475   1.413       .  A
C474        C479   1.414       .  A
C475        C476   1.402       .  A
C475        H480   1.083       .  S
C476        C477   1.402       .  A
C477        C478   1.402       .  A
C477        H481   1.085       .  S
C478        C501   1.477       .  S
C478        C479   1.401       .  A
C479        H482   1.083       .  S
O483        C499   1.278       .  A
O483       Zn489   2.047       .  S
C484        O500   1.274       .  A
C484        O497   1.280       .  A
C484        C519   1.477       .  S
O485        C498   1.274       .  A
O485       Cd492   2.071       .  S
O486        C504   1.280       .  A
O486       Cd495   2.110       .  S
O487        C501   1.272       .  A
O487       Cd491   2.048       .  S
O488        C499   1.270       .  A
O488       Cd491   2.033       .  S
Zn489       O500   2.006       .  S
Zn489       O502   2.003       .  S
Zn489       O494   1.931       .  S
O490        C501   1.280       .  A
O490       Cd495   2.114       .  S
Cd491       O493   2.059       .  S
Cd491       O494   1.978       .  S
Cd492       O496   2.053       .  S
Cd492       O505   2.037       .  S
Cd492       O494   1.984       .  S
O493        C503   1.273       .  A
O494       Cd495   2.021       .  S
Cd495       O497   2.106       .  S
O496        C503   1.273       .  A
C498        O502   1.273       .  A
C498        C526   1.473       .  S
C499        C537   1.469       .  S
C503        C544   1.466       .  S
C504        O505   1.272       .  A
C504        C510   1.473       .  S
C506        C675   1.487       .  S
C506        C507   1.412       .  A
C507        C508   1.401       .  A
C507        H512   1.083       .  S
C508        C509   1.401       .  A
C509        H513   1.085       .  S
C510        C511   1.397       .  A
C511        H514   1.084       .  S
C515        C665   1.491       .  S
C515       C1196   1.413       .  A
C515        C520   1.412   1_655  A
C516       C1195   1.413       .  A
C516        C517   1.403       .  A
C516        H521   1.083       .  S
C517       C1198   1.403       .  A
C518       C1197   1.403       .  A
C518        C519   1.403   1_655  A
C518        H522   1.085       .  S
C519        C520   1.399       .  A
C520        H523   1.083       .  S
C524        C582   1.511       .  S
C524       C1205   1.417       .  A
C524        C529   1.418       .  A
C525       C1204   1.417   1_455  A
C525        C526   1.399       .  A
C525        H530   1.078       .  S
C526       C1207   1.396   1_455  A
C527       C1206   1.396       .  A
C527        C528   1.396       .  A
C527        H531   1.085       .  S
C528        C529   1.401       .  A
C529        H532   1.077       .  S
C533        C575   1.497       .  S
C533        C534   1.415       .  A
C533        C538   1.415       .  A
C534        C535   1.400       .  A
C534        H539   1.082       .  S
C535        C536   1.396       .  A
C536        C537   1.396       .  A
C536        H540   1.085       .  S
C537        C538   1.397       .  A
C538        H541   1.080       .  S
C542        C547   1.410       .  A
C543        C544   1.398       .  A
C543        H548   1.084       .  S
C544        C545   1.397       .  A
C545        H549   1.085       .  S
C546        C547   1.401       .  A
C547        H550   1.084       .  S
C551        H552   1.107       .  S
C551        C557   1.538   1_545  S
C551        C556   1.546   1_545  S
C551        C895   1.528       .  S
C553        H554   1.109       .  S
C553        C559   1.533   1_545  S
C553        C898   1.537       .  S
C553        C560   1.535   1_545  S
C555        C891   1.528   1_455  S
C555        C558   1.366       .  D
C555        C612   1.483       .  S
C556        C559   1.378       .  D
C556        C595   1.477       .  S
C557        C560   1.384       .  D
C557        C605   1.506       .  S
C558        C893   1.537       .  S
C558        C572   1.472       .  S
C559        C562   1.502       .  S
C560        C585   1.475       .  S
C561        C562   1.410       .  A
C561        C566   1.396       .  A
C561        F568   1.353       .  S
C563        C564   1.395       .  A
C563        F570   1.351       .  S
C564        F569   1.358       .  S
C565        C566   1.405       .  A
C566        F567   1.358       .  S
C571        C572   1.397       .  A
C571        C576   1.400       .  A
C571        F578   1.358       .  S
C572        C573   1.396       .  A
C573        C574   1.391       .  A
C573        F580   1.358       .  S
C574        C575   1.414       .  A
C574        F579   1.357       .  S
C575        C576   1.418       .  A
C576        F577   1.357       .  S
C581       C1262   1.421   1_455  A
C581        C586   1.393       .  A
C581        F588   1.356       .  S
C582       C1261   1.421       .  A
C582        C583   1.420       .  A
C583        C584   1.399       .  A
C583        F590   1.355       .  S
C584        C585   1.399       .  A
C584        F589   1.358       .  S
C585       C1266   1.397       .  A
C586       C1265   1.397       .  A
C586        F587   1.359       .  S
C591        C592   1.415       .  A
C591        C596   1.390       .  A
C591        F598   1.356       .  S
C593        C594   1.403       .  A
C593        F600   1.357       .  S
C594        F599   1.358       .  S
C595        C596   1.396       .  A
C596        F597   1.357       .  S
C601       C1282   1.403       .  A
C601        C606   1.397       .  A
C601        F608   1.358       .  S
C602       C1104   1.479       .  S
C602       C1281   1.403       .  A
C602        C603   1.400       .  A
C603        C604   1.393       .  A
C603        F610   1.359       .  S
C604        C605   1.416       .  A
C604        F609   1.348       .  S
C605       C1286   1.410       .  A
C606       C1285   1.410   1_455  A
C606        F607   1.347       .  S
C611        C612   1.407       .  A
C611        C616   1.395       .  A
C611        F618   1.356       .  S
C612        C613   1.402       .  A
C613        C614   1.397       .  A
C613        F620   1.356       .  S
C614        C615   1.412       .  A
C614        F619   1.358       .  S
C615        C616   1.407       .  A
C616        F617   1.358       .  S
C621        C622   1.410       .  A
C621        C626   1.401       .  A
C621        F628   1.358       .  S
C622        C623   1.410       .  A
C623        C624   1.395       .  A
C623        F630   1.358       .  S
C624        C625   1.404       .  A
C624        F629   1.358       .  S
C625        C626   1.407       .  A
C626        F627   1.357       .  S
C631       C1312   1.411       .  A
C631        C636   1.395       .  A
C631        F638   1.358       .  S
C632       C1311   1.411   1_455  A
C632        C633   1.409       .  A
C633        C634   1.402       .  A
C633        F640   1.358       .  S
C634       C1315   1.409   1_455  A
C634        F639   1.357       .  S
C635       C1314   1.409       .  A
C635        C636   1.403       .  A
C636        F637   1.358       .  S
C641        C642   1.409   1_565  A
C641        C646   1.402       .  A
C641        F648   1.358       .  S
C643        C644   1.397       .  A
C643        F650   1.358       .  S
C644        F649   1.358       .  S
C645        C646   1.408       .  A
C646        F647   1.357       .  S
C651        C652   1.408       .  A
C651        C656   1.403       .  A
C651        F658   1.357       .  S
C652        C653   1.404       .  A
C653        C654   1.396       .  A
C653        F660   1.358       .  S
C654        C655   1.410       .  A
C654        F659   1.358       .  S
C655        C656   1.410       .  A
C656        F657   1.358       .  S
C661       C1342   1.407       .  A
C661        C666   1.402       .  A
C661        F668   1.357       .  S
C662       C1341   1.407       .  A
C662        C663   1.404   1_655  A
C663        C664   1.395       .  A
C663        F670   1.358       .  S
C664        C665   1.411   1_455  A
C664        F669   1.358       .  S
C665       C1346   1.410       .  A
C666       C1345   1.410       .  A
C666        F667   1.357       .  S
C671        C672   1.407       .  A
C671        C676   1.400       .  A
C671        F678   1.357       .  S
C673        C674   1.393       .  A
C673        F680   1.358       .  S
C674        F679   1.358       .  S
C675        C676   1.409       .  A
C676        F677   1.358       .  S
C681        H682   1.110   1_655  S
C681        C686   1.540   1_565  S
C681       C1025   1.540       .  S
C683        H684   1.111       .  S
C683       C1029   1.537       .  S
C683       C1030   1.538       .  S
C685       C1021   1.540       .  S
C685        C688   1.375       .  D
C685        C965   1.486       .  S
C686        C975   1.488   1_655  S
C687       C1030   1.374       .  D
C687        C985   1.491       .  S
C688        C992   1.490       .  S
C689       C1023   1.537   1_545  S
C689       C1002   1.487       .  S
C690       C1023   1.538       .  S
C690       C1027   1.374       .  D
C690       C1012   1.482       .  S
O691        C707   1.277       .  A
O691       Zn697   2.044       .  S
C692        O708   1.274       .  A
C692        O705   1.279       .  A
C692        C757   1.478       .  S
O693        C706   1.275       .  A
O693       Cd700   2.086       .  S
O694        C712   1.280       .  A
O694       Cd703   2.105       .  S
O695        C709   1.273       .  A
O695       Cd699   2.053   1_556  S
O696        C707   1.271       .  A
O696       Cd699   2.044       .  S
Zn697       O708   2.005   1_554  S
Zn697       O710   1.997       .  S
Zn697       O702   1.929   1_554  S
O698        C709   1.280       .  A
O698       Cd703   2.108       .  S
Cd699       O701   2.070       .  S
Cd699       O702   1.984   1_554  S
Cd700       O704   2.051       .  S
Cd700       O713   2.057   1_554  S
Cd700       O702   1.993   1_554  S
O701        C711   1.274       .  A
O702       Cd703   2.024       .  S
Cd703       O705   2.107       .  S
O704        C711   1.272       .  A
C706        O710   1.273       .  A
C706        C784   1.473       .  S
C707        C748   1.473       .  S
C709        C718   1.477       .  S
C711        C766   1.468       .  S
C712        O713   1.275       .  A
C712        C775   1.475       .  S
C714        C962   1.489       .  S
C714        C715   1.412       .  A
C714        C719   1.413       .  A
C715        C716   1.400       .  A
C715        H720   1.083       .  S
C716        C743   1.474       .  S
C716        C717   1.402       .  A
C717        C718   1.402       .  A
C717        H721   1.085       .  S
C718        C719   1.401       .  A
C719        H722   1.083       .  S
O723        C739   1.273       .  A
O723       Zn729   2.003   1_556  S
C724        O740   1.275       .  A
C724        O737   1.271       .  A
C724        C768   1.466       .  S
O725        C738   1.276       .  A
O725       Cd732   2.082       .  S
O726        C744   1.273       .  A
O726       Cd735   2.066       .  S
O727        C741   1.280       .  A
O727       Cd731   2.115       .  S
O728        C739   1.279       .  A
O728       Cd731   2.107       .  S
Zn729       O740   2.028       .  S
Zn729       O742   1.997       .  S
Zn729       O734   1.936   1_554  S
O730        C741   1.272       .  A
O730       Cd735   2.048   1_556  S
Cd731       O733   2.103       .  S
Cd731       O734   2.021       .  S
Cd732       O736   2.058   1_554  S
Cd732       O745   2.058       .  S
Cd732       O734   1.991   1_554  S
O733        C743   1.280       .  A
O734       Cd735   1.982   1_556  S
Cd735       O737   2.038       .  S
O736        C743   1.275       .  A
C738        O742   1.271       .  A
C738        C786   1.470       .  S
C739        C759   1.477       .  S
C741        C777   1.478       .  S
C744        O745   1.273       .  A
C744        C750   1.470       .  S
C746        C955   1.487       .  S
C746        C747   1.413       .  A
C746        C751   1.408       .  A
C747        C748   1.402       .  A
C747        H752   1.082       .  S
C748        C749   1.401       .  A
C749        C750   1.397       .  A
C749        H753   1.085       .  S
C750        C751   1.397       .  A
C751        H754   1.083       .  S
C755        C982   1.492       .  S
C755       C1096   1.413       .  A
C755        C760   1.413       .  A
C756       C1095   1.413       .  A
C756        C757   1.401       .  A
C756        H761   1.083       .  S
C757       C1098   1.403   1_545  A
C758       C1097   1.403       .  A
C758        C759   1.402       .  A
C758        H762   1.085       .  S
C759        C760   1.402       .  A
C760        H763   1.083       .  S
C764        C769   1.408       .  A
C765        C766   1.398       .  A
C765        H770   1.084       .  S
C767        C768   1.398       .  A
C768        C769   1.399       .  A
C769        H772   1.084       .  S
C773        C972   1.490       .  S
C773        C778   1.414       .  A
C774        C775   1.398       .  A
C774        H779   1.084       .  S
C776        C777   1.403       .  A
C776        H780   1.085       .  S
C777        C778   1.404       .  A
C778        H781   1.083       .  S
C782        C932   1.500       .  S
C782       C1123   1.417       .  A
C782        C787   1.415       .  A
C783       C1122   1.417   1_545  A
C783        C784   1.404       .  A
C783        H788   1.082       .  S
C784       C1125   1.398   1_545  A
C785       C1124   1.398       .  A
C785        C786   1.394       .  A
C785        H789   1.085       .  S
C786        C787   1.396       .  A
C787        H790   1.080       .  S
O791        C807   1.273       .  A
O791       Zn797   2.007       .  S
C792        O808   1.275       .  A
C792        O805   1.273       .  A
C792        C886   1.470       .  S
O793        C806   1.276       .  A
O793       Cd800   2.080       .  S
O794        C812   1.275       .  A
O794       Cd803   2.080       .  S
O795        C809   1.279       .  A
O795       Cd799   2.100       .  S
O796        C807   1.279       .  A
O796       Cd799   2.103       .  S
Zn797       O808   2.029       .  S
Zn797       O810   2.002       .  S
Zn797       O802   1.938       .  S
O798        C809   1.274       .  A
O798       Cd803   2.059       .  S
Cd799       O801   2.104       .  S
Cd799       O802   2.021       .  S
Cd800       O804   2.063       .  S
Cd800       O813   2.050       .  S
Cd800       O802   1.986       .  S
O801        C811   1.279       .  A
O802       Cd803   1.992       .  S
Cd803       O805   2.048       .  S
O804        C811   1.275       .  A
C806        O810   1.272       .  A
C806        C868   1.472       .  S
C807        C857   1.477       .  S
C809        C848   1.474       .  S
C811        C816   1.476       .  S
C812        O813   1.273       .  A
C812        C875   1.470       .  S
C814        C995   1.492       .  S
C814        C815   1.413       .  A
C814        C819   1.414       .  A
C815        C816   1.402       .  A
C815        H820   1.083       .  S
C816        C817   1.402       .  A
C817        C818   1.402       .  A
C817        H821   1.085       .  S
C818        C841   1.477       .  S
C818        C819   1.401       .  A
C819        H822   1.083       .  S
O823        C839   1.278       .  A
O823       Zn829   2.047       .  S
C824        O840   1.274       .  A
C824        O837   1.280       .  A
C824        C859   1.477       .  S
O825        C838   1.274       .  A
O825       Cd832   2.071       .  S
O826        C844   1.280       .  A
O826       Cd835   2.110       .  S
O827        C841   1.272       .  A
O827       Cd831   2.048       .  S
O828        C839   1.270       .  A
O828       Cd831   2.033       .  S
Zn829       O840   2.006       .  S
Zn829       O842   2.003       .  S
Zn829       O834   1.931       .  S
O830        C841   1.280       .  A
O830       Cd835   2.114       .  S
Cd831       O833   2.059       .  S
Cd831       O834   1.978       .  S
Cd832       O836   2.053       .  S
Cd832       O845   2.037       .  S
Cd832       O834   1.984       .  S
O833        C843   1.273       .  A
O834       Cd835   2.021       .  S
Cd835       O837   2.106       .  S
O836        C843   1.273       .  A
C838        O842   1.273       .  A
C838        C866   1.473       .  S
C839        C877   1.469       .  S
C843        C884   1.466       .  S
C844        O845   1.272       .  A
C844        C850   1.473       .  S
C846       C1015   1.487       .  S
C846        C847   1.412   1_565  A
C846       C1191   1.411       .  A
C847        C848   1.401       .  A
C847        H852   1.083       .  S
C848        C849   1.401   1_545  A
C849       C1190   1.403       .  A
C849        H853   1.085       .  S
C850       C1189   1.403       .  A
C850        C851   1.397       .  A
C851       C1186   1.411       .  A
C851        H854   1.084       .  S
C855       C1005   1.491       .  S
C855        C860   1.412       .  A
C856        C857   1.403       .  A
C856        H861   1.083       .  S
C858        C859   1.403       .  A
C858        H862   1.085       .  S
C859        C860   1.399       .  A
C860        H863   1.083       .  S
C864        C922   1.511       .  S
C864        C869   1.418       .  A
C865        C866   1.399       .  A
C865        H870   1.078       .  S
C867        C868   1.396       .  A
C867        H871   1.085       .  S
C868        C869   1.401       .  A
C869        H872   1.077       .  S
C873        C915   1.497       .  S
C873        C874   1.415       .  A
C873        C878   1.415       .  A
C874        C875   1.400       .  A
C874        H879   1.082       .  S
C875        C876   1.396       .  A
C876        C877   1.396       .  A
C876        H880   1.085       .  S
C877        C878   1.397       .  A
C878        H881   1.080       .  S
C882       C1245   1.479       .  S
C882       C1223   1.405       .  A
C882        C887   1.410   1_565  A
C883       C1222   1.405       .  A
C883        C884   1.398       .  A
C883        H888   1.084       .  S
C884        C885   1.397       .  A
C885       C1226   1.400       .  A
C885        H889   1.085       .  S
C886       C1225   1.400   1_545  A
C886        C887   1.401       .  A
C887        H890   1.084       .  S
C891        H892   1.107       .  S
C891        C897   1.538       .  S
C891        C896   1.546       .  S
C893        H894   1.109       .  S
C893        C899   1.533   1_455  S
C893        C900   1.535       .  S
C895        C898   1.366       .  D
C895        C952   1.483       .  S
C896        C899   1.378       .  D
C896        C935   1.477       .  S
C897        C900   1.384   1_655  D
C897        C945   1.506       .  S
C898        C912   1.472       .  S
C899        C902   1.502       .  S
C900        C925   1.475       .  S
C901        C902   1.410       .  A
C901        C906   1.396       .  A
C901        F908   1.353       .  S
C902       C1243   1.414       .  A
C903       C1242   1.414   1_545  A
C903        C904   1.395       .  A
C903        F910   1.351       .  S
C904       C1245   1.400   1_545  A
C904        F909   1.358       .  S
C905       C1222   1.479       .  S
C905       C1244   1.400       .  A
C905        C906   1.405       .  A
C906        F907   1.358       .  S
C911        C912   1.397       .  A
C911        C916   1.400       .  A
C911        F918   1.358       .  S
C912        C913   1.396       .  A
C913        C914   1.391       .  A
C913        F920   1.358       .  S
C914        C915   1.414       .  A
C914        F919   1.357       .  S
C915        C916   1.418       .  A
C916        F917   1.357       .  S
C921        C926   1.393       .  A
C921        F928   1.356       .  S
C922        C923   1.421       .  A
C923        C924   1.399       .  A
C923        F930   1.355       .  S
C924        C925   1.399   1_655  A
C924        F929   1.358       .  S
C926        F927   1.359       .  S
C931        C932   1.415       .  A
C931        C936   1.390       .  A
C931        F938   1.356       .  S
C932       C1273   1.418       .  A
C933       C1272   1.418   1_545  A
C933        C934   1.403       .  A
C933        F940   1.357       .  S
C934       C1275   1.399   1_545  A
C934        F939   1.358       .  S
C935       C1274   1.399       .  A
C935        C936   1.396       .  A
C936        F937   1.357       .  S
C941        C946   1.397       .  A
C941        F948   1.358       .  S
C942        C943   1.400   1_455  A
C943        C944   1.393       .  A
C943        F950   1.359       .  S
C944        C945   1.416       .  A
C944        F949   1.348       .  S
C946        F947   1.347       .  S
C951        C952   1.407       .  A
C951        C956   1.395       .  A
C951        F958   1.356       .  S
C952        C953   1.402       .  A
C953        C954   1.397       .  A
C953        F960   1.356       .  S
C954        C955   1.412       .  A
C954        F959   1.358       .  S
C955        C956   1.407       .  A
C956        F957   1.358       .  S
C961        C962   1.410       .  A
C961        C966   1.401       .  A
C961        F968   1.358       .  S
C962        C963   1.410       .  A
C963        C964   1.395       .  A
C963        F970   1.358       .  S
C964        C965   1.403       .  A
C964        F969   1.358       .  S
C965        C966   1.407       .  A
C966        F967   1.357       .  S
C971        C976   1.395       .  A
C971        F978   1.358       .  S
C972        C973   1.409       .  A
C973        C974   1.402       .  A
C973        F980   1.358       .  S
C974        F979   1.357       .  S
C975        C976   1.403   1_455  A
C976        F977   1.358       .  S
C981        C982   1.409       .  A
C981        C986   1.402       .  A
C981        F988   1.358       .  S
C982       C1323   1.411       .  A
C983       C1322   1.411       .  A
C983        C984   1.397       .  A
C983        F990   1.358       .  S
C984       C1325   1.405   1_545  A
C984        F989   1.358       .  S
C985       C1324   1.405       .  A
C985        C986   1.408       .  A
C986        F987   1.357       .  S
C991        C992   1.408       .  A
C991        C996   1.403       .  A
C991        F998   1.357       .  S
C992        C993   1.404       .  A
C993        C994   1.396       .  A
C993       F1000   1.358       .  S
C994        C995   1.410       .  A
C994        F999   1.358       .  S
C995        C996   1.410       .  A
C996        F997   1.358       .  S
C1001      C1006   1.402       .  A
C1001      F1008   1.357       .  S
C1002      C1003   1.404       .  A
C1003      C1004   1.395       .  A
C1003      F1010   1.358       .  S
C1004      C1005   1.411       .  A
C1004      F1009   1.358       .  S
C1006      F1007   1.357       .  S
C1011      C1012   1.407   1_545  A
C1011      C1016   1.400       .  A
C1011      F1018   1.357       .  S
C1012      C1353   1.402       .  A
C1013      C1352   1.402       .  A
C1013      C1014   1.393       .  A
C1013      F1020   1.358       .  S
C1014      C1355   1.411       .  A
C1014      F1019   1.358       .  S
C1015      C1354   1.411       .  A
C1015      C1016   1.409   1_565  A
C1016      F1017   1.358       .  S
C1021      H1022   1.110   1_655  S
C1021      C1026   1.540       .  S
C1023      H1024   1.111       .  S
C1025      C1028   1.375       .  D
C1025      C1305   1.486       .  S
C1026      C1315   1.488       .  S
C1027      C1325   1.491       .  S
C1028      C1332   1.490       .  S
C1029      C1342   1.487       .  S
C1030      C1352   1.482       .  S
O1031      C1047   1.277       .  A
O1031     Zn1037   2.044       .  S
C1032      O1048   1.274       .  A
C1032      O1045   1.279       .  A
C1032      C1097   1.478       .  S
O1033      C1046   1.275       .  A
O1033     Cd1040   2.086       .  S
O1034      C1052   1.280       .  A
O1034     Cd1043   2.105       .  S
O1035      C1049   1.273       .  A
O1035     Cd1039   2.053   1_556  S
O1036      C1047   1.271       .  A
O1036     Cd1039   2.044       .  S
Zn1037     O1048   2.005   1_554  S
Zn1037     O1050   1.997       .  S
Zn1037     O1042   1.929   1_554  S
O1038      C1049   1.280       .  A
O1038     Cd1043   2.108       .  S
Cd1039     O1041   2.070       .  S
Cd1039     O1042   1.984   1_554  S
Cd1040     O1044   2.051       .  S
Cd1040     O1053   2.057   1_554  S
Cd1040     O1042   1.993   1_554  S
O1041      C1051   1.274       .  A
O1042     Cd1043   2.024       .  S
Cd1043     O1045   2.107       .  S
O1044      C1051   1.272       .  A
C1046      O1050   1.273       .  A
C1046      C1124   1.473       .  S
C1047      C1088   1.473       .  S
C1049      C1058   1.477       .  S
C1051      C1106   1.468       .  S
C1052      O1053   1.275       .  A
C1052      C1115   1.475       .  S
C1054      C1302   1.489       .  S
C1054      C1055   1.412       .  A
C1054      C1059   1.413       .  A
C1055      C1056   1.400       .  A
C1055      H1060   1.083       .  S
C1056      C1083   1.474       .  S
C1056      C1057   1.402       .  A
C1057      C1058   1.402       .  A
C1057      H1061   1.085       .  S
C1058      C1059   1.401       .  A
C1059      H1062   1.083       .  S
O1063      C1079   1.273       .  A
O1063     Zn1069   2.003   1_556  S
C1064      O1080   1.275       .  A
C1064      O1077   1.271       .  A
C1064      C1108   1.466       .  S
O1065      C1078   1.276       .  A
O1065     Cd1072   2.082       .  S
O1066      C1084   1.273       .  A
O1066     Cd1075   2.066       .  S
O1067      C1081   1.280       .  A
O1067     Cd1071   2.115       .  S
O1068      C1079   1.279       .  A
O1068     Cd1071   2.107       .  S
Zn1069     O1080   2.028       .  S
Zn1069     O1082   1.997       .  S
Zn1069     O1074   1.936   1_554  S
O1070      C1081   1.272       .  A
O1070     Cd1075   2.048   1_556  S
Cd1071     O1073   2.103       .  S
Cd1071     O1074   2.021       .  S
Cd1072     O1076   2.059   1_554  S
Cd1072     O1085   2.058       .  S
Cd1072     O1074   1.991   1_554  S
O1073      C1083   1.280       .  A
O1074     Cd1075   1.982   1_556  S
Cd1075     O1077   2.038       .  S
O1076      C1083   1.275       .  A
C1078      O1082   1.271       .  A
C1078      C1126   1.470       .  S
C1079      C1099   1.477       .  S
C1081      C1117   1.478       .  S
C1084      O1085   1.273       .  A
C1084      C1090   1.470       .  S
C1086      C1295   1.487       .  S
C1086      C1087   1.413       .  A
C1086      C1091   1.408       .  A
C1087      C1088   1.403       .  A
C1087      H1092   1.082       .  S
C1088      C1089   1.401       .  A
C1089      C1090   1.397       .  A
C1089      H1093   1.085       .  S
C1090      C1091   1.397       .  A
C1091      H1094   1.083       .  S
C1095      C1322   1.492       .  S
C1095      C1100   1.413   1_545  A
C1096      C1097   1.401       .  A
C1096      H1101   1.083       .  S
C1098      C1099   1.402       .  A
C1098      H1102   1.085       .  S
C1099      C1100   1.402       .  A
C1100      H1103   1.083       .  S
C1104      C1109   1.408       .  A
C1105      C1106   1.398       .  A
C1105      H1110   1.084       .  S
C1107      C1108   1.398       .  A
C1108      C1109   1.399       .  A
C1109      H1112   1.084       .  S
C1113      C1312   1.490       .  S
C1113      C1118   1.414       .  A
C1114      C1115   1.398       .  A
C1114      H1119   1.084       .  S
C1116      C1117   1.403       .  A
C1116      H1120   1.085       .  S
C1117      C1118   1.404       .  A
C1118      H1121   1.083       .  S
C1122      C1272   1.500       .  S
C1122      C1127   1.415       .  A
C1123      C1124   1.404       .  A
C1123      H1128   1.082       .  S
C1125      C1126   1.394       .  A
C1125      H1129   1.085       .  S
C1126      C1127   1.396       .  A
C1127      H1130   1.080       .  S
O1131      C1147   1.273       .  A
O1131     Zn1137   2.007       .  S
C1132      O1148   1.275       .  A
C1132      O1145   1.273       .  A
C1132      C1226   1.470       .  S
O1133      C1146   1.276       .  A
O1133     Cd1140   2.080       .  S
O1134      C1152   1.275       .  A
O1134     Cd1143   2.080       .  S
O1135      C1149   1.279       .  A
O1135     Cd1139   2.100       .  S
O1136      C1147   1.279       .  A
O1136     Cd1139   2.103       .  S
Zn1137     O1148   2.029       .  S
Zn1137     O1150   2.002       .  S
Zn1137     O1142   1.938       .  S
O1138      C1149   1.274       .  A
O1138     Cd1143   2.059       .  S
Cd1139     O1141   2.104       .  S
Cd1139     O1142   2.021       .  S
Cd1140     O1144   2.063       .  S
Cd1140     O1153   2.050       .  S
Cd1140     O1142   1.986       .  S
O1141      C1151   1.279       .  A
O1142     Cd1143   1.992       .  S
Cd1143     O1145   2.047       .  S
O1144      C1151   1.275       .  A
C1146      O1150   1.272       .  A
C1146      C1208   1.472       .  S
C1147      C1197   1.477       .  S
C1149      C1188   1.474       .  S
C1151      C1156   1.476       .  S
C1152      O1153   1.273       .  A
C1152      C1215   1.470       .  S
C1154      C1335   1.492       .  S
C1154      C1155   1.413       .  A
C1154      C1159   1.414       .  A
C1155      C1156   1.402       .  A
C1155      H1160   1.083       .  S
C1156      C1157   1.402       .  A
C1157      C1158   1.402       .  A
C1157      H1161   1.085       .  S
C1158      C1181   1.477       .  S
C1158      C1159   1.401       .  A
C1159      H1162   1.083       .  S
O1163      C1179   1.278       .  A
O1163     Zn1169   2.047       .  S
C1164      O1180   1.274       .  A
C1164      O1177   1.280       .  A
C1164      C1199   1.477       .  S
O1165      C1178   1.274       .  A
O1165     Cd1172   2.071       .  S
O1166      C1184   1.280       .  A
O1166     Cd1175   2.110       .  S
O1167      C1181   1.272       .  A
O1167     Cd1171   2.048       .  S
O1168      C1179   1.270       .  A
O1168     Cd1171   2.033       .  S
Zn1169     O1180   2.006       .  S
Zn1169     O1182   2.003       .  S
Zn1169     O1174   1.931       .  S
O1170      C1181   1.280       .  A
O1170     Cd1175   2.114       .  S
Cd1171     O1173   2.059       .  S
Cd1171     O1174   1.978       .  S
Cd1172     O1176   2.053       .  S
Cd1172     O1185   2.037       .  S
Cd1172     O1174   1.984       .  S
O1173      C1183   1.273       .  A
O1174     Cd1175   2.021       .  S
Cd1175     O1177   2.106       .  S
O1176      C1183   1.273       .  A
C1178      O1182   1.273       .  A
C1178      C1206   1.473       .  S
C1179      C1217   1.469       .  S
C1183      C1224   1.466       .  S
C1184      O1185   1.272       .  A
C1184      C1190   1.473       .  S
C1186      C1355   1.487       .  S
C1186      C1187   1.412       .  A
C1187      C1188   1.401       .  A
C1187      H1192   1.083       .  S
C1188      C1189   1.401       .  A
C1189      H1193   1.085       .  S
C1190      C1191   1.397       .  A
C1191      H1194   1.084       .  S
C1195      C1345   1.491       .  S
C1195      C1200   1.412       .  A
C1196      C1197   1.403       .  A
C1196      H1201   1.083       .  S
C1198      C1199   1.403       .  A
C1198      H1202   1.085       .  S
C1199      C1200   1.399       .  A
C1200      H1203   1.083       .  S
C1204      C1262   1.511       .  S
C1204      C1209   1.418       .  A
C1205      C1206   1.399       .  A
C1205      H1210   1.078       .  S
C1207      C1208   1.396       .  A
C1207      H1211   1.085       .  S
C1208      C1209   1.401       .  A
C1209      H1212   1.077       .  S
C1213      C1255   1.497       .  S
C1213      C1214   1.415       .  A
C1213      C1218   1.415       .  A
C1214      C1215   1.400       .  A
C1214      H1219   1.082       .  S
C1215      C1216   1.396       .  A
C1216      C1217   1.396       .  A
C1216      H1220   1.085       .  S
C1217      C1218   1.397       .  A
C1218      H1221   1.080       .  S
C1222      C1227   1.410       .  A
C1223      C1224   1.398       .  A
C1223      H1228   1.084       .  S
C1224      C1225   1.397       .  A
C1225      H1229   1.085       .  S
C1226      C1227   1.401       .  A
C1227      H1230   1.084       .  S
C1231      H1232   1.107       .  S
C1231      C1237   1.538   1_545  S
C1231      C1236   1.546   1_545  S
C1233      H1234   1.109       .  S
C1233      C1239   1.533   1_445  S
C1233      C1240   1.535   1_545  S
C1235      C1238   1.366       .  D
C1235      C1292   1.483       .  S
C1236      C1239   1.378       .  D
C1236      C1275   1.477       .  S
C1237      C1240   1.384   1_655  D
C1237      C1285   1.506       .  S
C1238      C1252   1.472       .  S
C1239      C1242   1.502       .  S
C1240      C1265   1.475       .  S
C1241      C1242   1.410       .  A
C1241      C1246   1.396       .  A
C1241      F1248   1.353       .  S
C1243      C1244   1.395       .  A
C1243      F1250   1.351       .  S
C1244      F1249   1.358       .  S
C1245      C1246   1.405       .  A
C1246      F1247   1.358       .  S
C1251      C1252   1.397       .  A
C1251      C1256   1.400       .  A
C1251      F1258   1.358       .  S
C1252      C1253   1.396       .  A
C1253      C1254   1.391       .  A
C1253      F1260   1.358       .  S
C1254      C1255   1.414       .  A
C1254      F1259   1.357       .  S
C1255      C1256   1.418       .  A
C1256      F1257   1.357       .  S
C1261      C1266   1.393       .  A
C1261      F1268   1.356       .  S
C1262      C1263   1.420       .  A
C1263      C1264   1.399       .  A
C1263      F1270   1.355       .  S
C1264      C1265   1.399   1_655  A
C1264      F1269   1.358       .  S
C1266      F1267   1.359       .  S
C1271      C1272   1.415       .  A
C1271      C1276   1.390       .  A
C1271      F1278   1.356       .  S
C1273      C1274   1.403       .  A
C1273      F1280   1.357       .  S
C1274      F1279   1.358       .  S
C1275      C1276   1.396       .  A
C1276      F1277   1.357       .  S
C1281      C1286   1.397       .  A
C1281      F1288   1.358       .  S
C1282      C1283   1.400   1_455  A
C1283      C1284   1.393       .  A
C1283      F1290   1.359       .  S
C1284      C1285   1.416       .  A
C1284      F1289   1.348       .  S
C1286      F1287   1.347       .  S
C1291      C1292   1.407       .  A
C1291      C1296   1.395       .  A
C1291      F1298   1.356       .  S
C1292      C1293   1.402       .  A
C1293      C1294   1.397       .  A
C1293      F1300   1.356       .  S
C1294      C1295   1.412       .  A
C1294      F1299   1.358       .  S
C1295      C1296   1.407       .  A
C1296      F1297   1.358       .  S
C1301      C1302   1.410       .  A
C1301      C1306   1.401       .  A
C1301      F1308   1.358       .  S
C1302      C1303   1.410       .  A
C1303      C1304   1.395       .  A
C1303      F1310   1.358       .  S
C1304      C1305   1.404       .  A
C1304      F1309   1.358       .  S
C1305      C1306   1.407       .  A
C1306      F1307   1.357       .  S
C1311      C1316   1.395       .  A
C1311      F1318   1.358       .  S
C1312      C1313   1.409       .  A
C1313      C1314   1.402       .  A
C1313      F1320   1.358       .  S
C1314      F1319   1.357       .  S
C1315      C1316   1.403       .  A
C1316      F1317   1.358       .  S
C1321      C1322   1.409   1_565  A
C1321      C1326   1.402       .  A
C1321      F1328   1.358       .  S
C1323      C1324   1.397       .  A
C1323      F1330   1.358       .  S
C1324      F1329   1.358       .  S
C1325      C1326   1.408       .  A
C1326      F1327   1.357       .  S
C1331      C1332   1.408       .  A
C1331      C1336   1.403       .  A
C1331      F1338   1.357       .  S
C1332      C1333   1.404       .  A
C1333      C1334   1.396       .  A
C1333      F1340   1.358       .  S
C1334      C1335   1.410       .  A
C1334      F1339   1.358       .  S
C1335      C1336   1.410       .  A
C1336      F1337   1.358       .  S
C1341      C1346   1.402       .  A
C1341      F1348   1.357       .  S
C1342      C1343   1.404       .  A
C1343      C1344   1.395       .  A
C1343      F1350   1.358       .  S
C1344      C1345   1.411       .  A
C1344      F1349   1.358       .  S
C1346      F1347   1.357       .  S
C1351      C1352   1.407       .  A
C1351      C1356   1.400       .  A
C1351      F1358   1.357       .  S
C1353      C1354   1.393       .  A
C1353      F1360   1.358       .  S
C1354      F1359   1.358       .  S
C1355      C1356   1.409       .  A
C1356      F1357   1.358       .  S
