geometry optimzed in LAMMPS
_audit_creation_date              2020-11-30 
_audit_creation_method            'lammps2cif' 
_symmetry_space_group_name_H-M    'P1' 
_symmetry_Int_Tables_number       1 
_symmetry_cell_setting            triclinic 
loop_ 
_symmetry_equiv_pos_as_xyz 
  x,y,z 
_cell_length_a                    33.71155119 
_cell_length_b                    33.87167246403304 
_cell_length_c                    40.98725332437365 
_cell_angle_alpha                 75.12364035735797 
_cell_angle_beta                  74.99956140497277 
_cell_angle_gamma                 86.02372258147815 
loop_ 
_atom_site_label 
_atom_site_type_symbol 
_atom_site_fract_x 
_atom_site_fract_y 
_atom_site_fract_z 
_atom_site_charge 
N1          N  0.30398498  0.00350982  0.22909999    -0.02200
C2          C  0.34416798  0.01340145  0.22172037     0.00400
C3          C  0.36060938  0.02484627  0.18611153    -0.22500
C4          C  0.32952104  0.02178254  0.17091427    -0.22700
C5          C  0.29517768  0.00869821  0.19780973     0.00300
H6          H  0.39232170  0.03235757  0.17269341     0.14100
H7          H  0.33185689  0.02779104  0.14324398     0.14100
N8          N  0.58747440  0.95162158  0.36269815    -0.02200
C9          C  0.54581368  0.95030256  0.36999400     0.00400
C10         C  0.52894259  0.95304774  0.40398746    -0.22500
C11         C  0.56094880  0.95617785  0.41801070    -0.22700
C12         C  0.59635164  0.95539232  0.39218673     0.00300
H13         H  0.49671273  0.95461633  0.41682711     0.14100
H14         H  0.55864754  0.95911811  0.44411422     0.14100
N15         N  0.94741464  0.32022227  0.23428405    -0.02200
C16         C  0.95987020  0.35977497  0.22359261     0.00400
C17         C  0.96499569  0.37429456  0.18807189    -0.22500
C18         C  0.95504972  0.34283381  0.17628954    -0.22700
C19         C  0.94429102  0.31012042  0.20504707     0.00300
H20         H  0.97375441  0.40490067  0.17261117     0.14100
H21         H  0.95590709  0.34361314  0.14955228     0.14100
N22         N  0.97740174  0.60669529  0.35090466    -0.02200
C23         C  0.97895328  0.56539193  0.35657983     0.00400
C24         C  0.98521800  0.54805654  0.38937310    -0.22500
C25         C  0.98612531  0.57946757  0.40465201    -0.22700
C26         C  0.98083107  0.61502136  0.38062779     0.00300
H27         H  0.98720364  0.51583874  0.40151243     0.14100
H28         H  0.98865242  0.57659743  0.43095032     0.14100
C29         C  0.05885902  0.97948147  0.10394447     0.43800
N30         N  0.03016441  0.95687322  0.07140581     0.02700
C31         C  0.89965341  0.07056015  0.47623763    -0.05200
H32         H  0.86115622  0.06098541  0.11173905     0.08200
C33         C  0.83775734  0.91454750  0.13653756    -0.05600
Co34       Co  0.99076053  0.02414931  0.02726639     0.74200
N35         N  0.91121904  0.04335944  0.07333447    -0.24700
Co36       Co  0.88583680  0.00829326  0.04911482     0.74100
C37         C  0.81423806  0.94897696  0.14754401     0.43900
N38         N  0.93673716  0.87728488  0.10433641     0.02300
N39         N  0.85632750  0.97095331  0.09743363     0.02400
N40         N  0.96835255  0.07947538  0.46258913    -0.45600
H41         H  0.04188553  0.04600303  0.08056003     0.08100
N42         N  0.95118263  0.04965213  0.06469939     0.02700
N43         N  0.86319351  0.97124303  0.02488860     0.02400
C44         C  0.83360914  0.94933639  0.49267536     0.44000
N45         N  0.97666244  0.88368233  0.09640634    -0.24200
C46         C  0.05313711  0.01232735  0.45902529    -0.05100
N47         N  0.05100553  0.94526323  0.09557442    -0.45300
N48         N  0.84210071  0.98331932  0.50098393    -0.45500
C49         C  0.07602574  0.97778105  0.44765049     0.43800
N50         N  0.95571979  0.05132670  0.49221267     0.02700
N51         N  0.98198823  0.88330538  0.02407166    -0.24200
N52         N  0.02417930  0.99667387  0.06316737    -0.24700
N53         N  0.94201969  0.87730870  0.03215540     0.02300
H54         H  0.03280695  0.86302918  0.48815041     0.08200
H55         H  0.85141049  0.88258775  0.01461065     0.08200
N56         N  0.91568578  0.04559318  0.00081816    -0.24800
N57         N  0.86277352  0.93115952  0.10522452    -0.24400
N58         N  0.03627981  0.95624826  0.49893372     0.02700
C59         C  0.92772699  0.07944096  0.10607919     0.44100
C60         C  0.99166706  0.86189398  0.12290724    -0.05600
N61         N  0.86904421  0.93134662  0.03280222    -0.24400
H62         H  0.83451110  0.88221510  0.14879212     0.08200
N63         N  0.96227293  0.07117525  0.08356258    -0.45600
H64         H  0.02376336  0.85917276  0.12311047     0.08200
C65         C  0.96646762  0.84368224  0.49347681     0.43900
C66         C  0.04145577  0.01368227  0.08216928    -0.05100
Co67       Co  0.00714337  0.91944267  0.04769191     0.73800
N68         N  0.92330055  0.85135374  0.13503920    -0.45300
C69         C  0.93471811  0.09312723  0.45079628     0.44200
N70         N  0.06396492  0.94416809  0.47389756    -0.45300
Co71       Co  0.90210038  0.90350356  0.06895607     0.73900
C72         C  0.85127248  0.91472821  0.01385738    -0.05600
C73         C  0.89359276  0.06131277  0.09916195    -0.05200
N74         N  0.02949469  0.99602019  0.49095629    -0.24700
N75         N  0.82751758  0.98275436  0.12186903    -0.45500
H76         H  0.86729692  0.07371050  0.47709546     0.08200
C77         C  0.00019031  0.86315718  0.49989514    -0.05600
Cl78       Cl  0.94646588  0.96385549  0.04817533    -0.48600
C79         C  0.95615223  0.84049375  0.14849755     0.43900
H80         H  0.05550412  0.04457357  0.44631261     0.08100
N81         N  0.93148993  0.85380582  0.01452826    -0.45300
C82         C  0.00452957  0.77237274  0.43371104    -0.26900
C83         C  0.96742407  0.76098679  0.42915675     0.06700
C84         C  0.93062846  0.77900257  0.44404788     0.26300
C85         C  0.93097107  0.80643675  0.46423299    -0.11400
C86         C  0.96790335  0.81677046  0.46984756    -0.25300
C87         C  0.00494826  0.80006123  0.45371171     0.37100
C88         C  0.96699244  0.72684704  0.41269491     0.06700
F89         F  0.89421575  0.76961063  0.43955235    -0.19100
H90         H  0.90203174  0.81920421  0.47592436     0.16600
F91         F  0.04146746  0.80880659  0.95829322    -0.22800
H92         H  0.03319046  0.75832521  0.42311752     0.18400
C93         C  0.99613724  0.72413609  0.38171066     0.26300
C94         C  0.99944471  0.68834222  0.37003220    -0.11300
C95         C  0.97364892  0.65510175  0.38902879    -0.25400
C96         C  0.94282690  0.65886669  0.41851347     0.37300
C97         C  0.93971032  0.69428849  0.43030404    -0.27000
F98         F  0.02206409  0.75558609  0.36333577    -0.19100
H99         H  0.02329544  0.68591493  0.34717752     0.16600
F100        F  0.91653634  0.62760003  0.43661099    -0.22800
H101        H  0.91724738  0.69532422  0.45432607     0.18400
C102        C  0.92961787  0.74235291  0.21933265    -0.26900
C103        C  0.96064365  0.74048771  0.23689206     0.06700
C104        C  0.98911168  0.77272940  0.22597204     0.26300
C105        C  0.98729936  0.80524102  0.19734799    -0.11400
C106        C  0.95666585  0.80671441  0.17950976    -0.25300
C107        C  0.92734678  0.77524866  0.19112066     0.37100
C108        C  0.96402376  0.70434000  0.26567235     0.06700
F109        F  0.01839378  0.77309775  0.24323594    -0.19100
H110        H  0.00975396  0.82946945  0.18925986     0.16600
F111        F  0.89744232  0.77532460  0.17440414    -0.22800
H112        H  0.90765021  0.71775888  0.22691606     0.18400
C113        C  0.92946200  0.68865368  0.29281107     0.26300
C114        C  0.93356844  0.65505291  0.31998833    -0.11300
C115        C  0.97198917  0.63665484  0.32049721    -0.25400
C116        C  0.00638577  0.65210329  0.29351728     0.37300
C117        C  0.00233453  0.68526894  0.26614589    -0.27000
F118        F  0.89217247  0.70691987  0.29393072    -0.19100
H119        H  0.90712800  0.64415977  0.34133868     0.16600
F120        F  0.04416278  0.63594940  0.29448798    -0.22800
H121        H  0.02932113  0.69637484  0.24545411     0.18400
C122        C  0.90086533  0.18670064  0.38936908    -0.26900
C123        C  0.93658903  0.19579037  0.36198888     0.06700
C124        C  0.97156562  0.17094235  0.36444701     0.26300
C125        C  0.97058800  0.13802619  0.39348333    -0.11400
C126        C  0.93468662  0.12853578  0.42051214    -0.25300
C127        C  0.89973416  0.15343173  0.41822507     0.37100
C128        C  0.93716472  0.23069159  0.33088841     0.06700
F129        F  0.00642362  0.17759386  0.33827900    -0.19100
H130        H  0.99788923  0.11936620  0.39451360     0.16600
F131        F  0.86478364  0.14661977  0.44423767    -0.22800
H132        H  0.87377243  0.20572737  0.38863986     0.18400
C133        C  0.90504318  0.23659907  0.31385875     0.26300
C134        C  0.90739183  0.26772378  0.28334596    -0.11300
C135        C  0.94199304  0.29314868  0.26873756    -0.25400
C136        C  0.97336744  0.28827897  0.28634776     0.37300
C137        C  0.97074191  0.25764811  0.31718973    -0.27000
F138        F  0.87243327  0.21089773  0.32550746    -0.19100
H139        H  0.88291508  0.27093138  0.27016736     0.16600
F140        F  0.00780854  0.31138818  0.27257058    -0.22800
H141        H  0.99557361  0.25440587  0.32998317     0.18400
C142        C  0.90005066  0.23057154  0.17528205    -0.26900
C143        C  0.92224175  0.19564647  0.18718113     0.06700
C144        C  0.94810525  0.19737757  0.20876380     0.26300
C145        C  0.95370929  0.23431987  0.21622883    -0.11400
C146        C  0.93327779  0.26976458  0.20255572    -0.25300
C147        C  0.90549053  0.26733461  0.18284094     0.37100
C148        C  0.92317462  0.16028522  0.17212814     0.06700
F149        F  0.96930996  0.16382430  0.22124426    -0.19100
H150        H  0.97561870  0.23565530  0.23112119     0.16600
F151        F  0.88493332  0.30100677  0.16957582    -0.22800
H152        H  0.88040903  0.23007814  0.15823774     0.18400
C153        C  0.88677110  0.14364328  0.17075128     0.26300
C154        C  0.88838307  0.11603831  0.15027658    -0.11300
C155        C  0.92627006  0.10482125  0.13077173    -0.25400
C156        C  0.96275532  0.11965170  0.13392907     0.37300
C157        C  0.96106721  0.14715141  0.15436704    -0.27000
F158        F  0.84967317  0.15511229  0.18830090    -0.19100
H159        H  0.85984921  0.10464580  0.14882846     0.16600
F160        F  0.00014190  0.10898644  0.11624448    -0.22800
H161        H  0.98947108  0.15998123  0.15471542     0.18400
C162        C  0.94161990  0.47783047  0.33152165    -0.26900
C163        C  0.96327925  0.48353012  0.29647735     0.06700
C164        C  0.98570042  0.52000471  0.27973194     0.26300
C165        C  0.98945187  0.54793670  0.29875210    -0.11400
C166        C  0.96980129  0.54068563  0.33435597    -0.25300
C167        C  0.94429263  0.50625229  0.35009839     0.37100
C168        C  0.96301297  0.45058299  0.27847905     0.06700
F169        F  0.00420055  0.52862498  0.24511276    -0.19100
H170        H  0.00909725  0.57414616  0.28587209     0.16600
F171        F  0.92260805  0.49943652  0.38391733    -0.22800
H172        H  0.92361573  0.45051705  0.34509271     0.18400
C173        C  0.99937813  0.43850034  0.25725553     0.26300
C174        C  0.99845127  0.40751081  0.24062676    -0.11300
C175        C  0.96185979  0.38681570  0.24600180    -0.25400
C176        C  0.92592585  0.39740494  0.26821423     0.37300
C177        C  0.92644485  0.42927892  0.28402872    -0.27000
F178        F  0.03600814  0.45592277  0.25304967    -0.19100
H179        H  0.02631682  0.39977349  0.22325642     0.16600
F180        F  0.88988298  0.37858098  0.27293147    -0.22800
H181        H  0.89797214  0.43782862  0.30011682     0.18400
C182        C  0.75378691  0.91613230  0.45532663    -0.26900
C183        C  0.74766763  0.95254012  0.43148676     0.06700
C184        C  0.77232949  0.98658190  0.42593510     0.26300
C185        C  0.80125171  0.98467221  0.44521487    -0.11400
C186        C  0.80616541  0.94882299  0.47014763    -0.25300
C187        C  0.78281509  0.91412664  0.47454844     0.37100
C188        C  0.71204923  0.95622823  0.41626505     0.06700
F189        F  0.76763463  0.02198396  0.40256499    -0.19100
H190        H  0.81922813  0.01160455  0.44119513     0.16600
F191        F  0.78575355  0.87919698  0.49899216    -0.22800
H192        H  0.73445935  0.88985476  0.46048991     0.18400
C193        C  0.70406376  0.92662388  0.40021938     0.26300
C194        C  0.66705366  0.92756170  0.39064827    -0.11300
C195        C  0.63768158  0.95782132  0.39720545    -0.25400
C196        C  0.64642573  0.98833104  0.41187033     0.37300
C197        C  0.68334798  0.98751612  0.42125434    -0.27000
F198        F  0.73150585  0.89627066  0.39474249    -0.19100
H199        H  0.66055054  0.90365986  0.37959703     0.16600
F200        F  0.61873299  0.01831446  0.41797651    -0.22800
H201        H  0.68866227  0.01028233  0.43399172     0.18400
C202        C  0.65018952  0.91728600  0.28450894    -0.26900
C203        C  0.67941034  0.94878474  0.26939850     0.06700
C204        C  0.67668806  0.98179696  0.28491894     0.26300
C205        C  0.64583235  0.98293273  0.31493340    -0.11400
C206        C  0.61702007  0.95132374  0.33021572    -0.25300
C207        C  0.61918723  0.91853954  0.31464626     0.37100
C208        C  0.71271122  0.94745403  0.23762026     0.06700
F209        F  0.70472875  0.01237715  0.27173787    -0.19100
H210        H  0.64463682  0.00834408  0.32668604     0.16600
F211        F  0.59217728  0.88719509  0.32927575    -0.22800
H212        H  0.65139439  0.89170806  0.27294769     0.18400
C213        C  0.73809381  0.91284362  0.23579631     0.26300
C214        C  0.77073967  0.91322607  0.20636235    -0.11300
C215        C  0.77884385  0.94810215  0.17826009    -0.25400
C216        C  0.75290851  0.98237702  0.17994418     0.37300
C217        C  0.72025956  0.98185778  0.20917655    -0.27000
F218        F  0.73235643  0.87924711  0.26299339    -0.19100
H219        H  0.79019666  0.88645747  0.20594269     0.16600
F220        F  0.75880856  0.01651683  0.15328065    -0.22800
H221        H  0.70078913  0.00863761  0.20964291     0.18400
C222        C  0.21729417  0.95668596  0.30509890    -0.26900
C223        C  0.21165262  0.98590567  0.32489105     0.06700
C224        C  0.23989602  0.01825679  0.31452197     0.26300
C225        C  0.27124824  0.02268746  0.28385834    -0.11400
C226        C  0.27530388  0.99496219  0.26299153    -0.25300
C227        C  0.24890194  0.96107505  0.27443890     0.37100
C228        C  0.17597209  0.98318834  0.35575732     0.06700
F229        F  0.23704385  0.04576579  0.33397104    -0.19100
H230        H  0.29161162  0.04870946  0.27563006     0.16600
F231        F  0.25332615  0.93268536  0.25565458    -0.22800
H232        H  0.19642754  0.93111784  0.31282582     0.18400
C233        C  0.15020155  0.01717772  0.35928487     0.26300
C234        C  0.11775593  0.01506682  0.38898559    -0.11300
C235        C  0.10980470  0.97893217  0.41571732    -0.25400
C236        C  0.13466370  0.94439875  0.41158324     0.37300
C237        C  0.16735972  0.94663664  0.38191496    -0.27000
F238        F  0.15587976  0.05231409  0.33364044    -0.20200
H239        H  0.09874342  0.04186564  0.39086809     0.16600
F240        F  0.12797151  0.90860379  0.43640598    -0.22800
H241        H  0.18650215  0.91994903  0.37967728     0.18400
C242        C  0.21820944  0.97045489  0.16125701    -0.26900
C243        C  0.18200197  0.98986768  0.17514399     0.06700
C244        C  0.18246491  0.01350370  0.19871406     0.26300
C245        C  0.21916244  0.01877236  0.20703516    -0.11400
C246        C  0.25553950  0.00036002  0.19209425    -0.25300
C247        C  0.25464033  0.97560942  0.16959569     0.37100
C248        C  0.14520139  0.98699904  0.16265385     0.06700
F249        F  0.14765605  0.03166796  0.21339164    -0.19100
H250        H  0.21941835  0.03808459  0.22433490     0.16600
F251        F  0.28919237  0.95668903  0.15538061    -0.22800
H252        H  0.21858778  0.95226481  0.14295262     0.18400
C253        C  0.12581458  0.02245437  0.14747682     0.26300
C254        C  0.09626011  0.01961541  0.12982871    -0.11300
C255        C  0.08593996  0.98153481  0.12659428    -0.25400
C256        C  0.10359063  0.94590385  0.14359739     0.37300
C257        C  0.13294728  0.94875544  0.16141760    -0.27000
F258        F  0.13760416  0.06003317  0.14732519    -0.19100
H259        H  0.08290692  0.04757629  0.11742774     0.16600
F260        F  0.09383545  0.90838778  0.14191707    -0.22800
H261        H  0.14742288  0.92107609  0.17313372     0.18400
C262        C  0.45300817  0.94221665  0.33731702    -0.26900
C263        C  0.46252026  0.96949469  0.30419965     0.06700
C264        C  0.50233326  0.98640859  0.29097338     0.26300
C265        C  0.53059760  0.97836696  0.31158255    -0.11400
C266        C  0.52027249  0.95223826  0.34517227    -0.25300
C267        C  0.48176092  0.93290564  0.35720118     0.37100
C268        C  0.43027951  0.98123618  0.28455040     0.06700
F269        F  0.51382251  0.01130032  0.25840780    -0.19100
H270        H  0.55966264  0.99425189  0.30178443     0.16600
F271        F  0.47119350  0.90607823  0.38894808    -0.22800
H272        H  0.42266409  0.92909135  0.34862251     0.18400
C273        C  0.40240968  0.95213151  0.28430533     0.26300
C274        C  0.37215720  0.96374131  0.26598204    -0.11300
C275        C  0.36994907  0.00404462  0.24667762    -0.25400
C276        C  0.39725680  0.03325819  0.24697039     0.37300
C277        C  0.42651339  0.02211291  0.26639646    -0.27000
F278        F  0.40563092  0.91202776  0.30013965    -0.19100
H279        H  0.35202511  0.94065749  0.26509236     0.16600
F280        F  0.39602765  0.07238184  0.22797502    -0.22800
H281        H  0.44643058  0.04552309  0.26696264     0.18400
N282        N  0.30400299  0.00346331  0.72907966    -0.02200
C283        C  0.34418886  0.01334463  0.72170116     0.00400
C284        C  0.36063408  0.02477725  0.68609226    -0.22500
C285        C  0.32954553  0.02171554  0.67089428    -0.22700
C286        C  0.29519794  0.00864542  0.69778915     0.00300
H287        H  0.39234793  0.03228186  0.67267493     0.14100
H288        H  0.33188326  0.02771815  0.64322405     0.14100
N289        N  0.58746362  0.95162121  0.86272468    -0.02200
C290        C  0.54580143  0.95032410  0.87001570     0.00400
C291        C  0.52893194  0.95309940  0.90400139    -0.22500
C292        C  0.56093953  0.95622428  0.91802466    -0.22700
C293        C  0.59634286  0.95540644  0.89220872     0.00300
H294        H  0.49670300  0.95468903  0.91683602     0.14100
H295        H  0.55863881  0.95918021  0.94412363     0.14100
N296        N  0.94744366  0.32023555  0.73426162    -0.02200
C297        C  0.95990104  0.35978767  0.72357446     0.00400
C298        C  0.96502158  0.37431365  0.68805473    -0.22500
C299        C  0.95507127  0.34285745  0.67626902    -0.22700
C300        C  0.94431498  0.31013986  0.70502343     0.00300
H301        H  0.97378304  0.40492015  0.67259650     0.14100
H302        H  0.95592639  0.34364207  0.64953112     0.14100
N303        N  0.97743179  0.60668914  0.85091063    -0.02200
C304        C  0.97902839  0.56538603  0.85658419     0.00400
C305        C  0.98532206  0.54806792  0.88937028    -0.22500
C306        C  0.98620348  0.57948757  0.90464599    -0.22700
C307        C  0.98086569  0.61502992  0.88062707     0.00300
H308        H  0.98734621  0.51585421  0.90150709     0.14100
H309        H  0.98874689  0.57662937  0.93093819     0.14100
C310        C  0.05883159  0.97944753  0.60396409     0.43800
N311        N  0.03012782  0.95684166  0.57142985     0.02700
C312        C  0.89967975  0.07056360  0.97621055    -0.05200
H313        H  0.86113046  0.06097017  0.61176166     0.08200
C314        C  0.83771453  0.91451571  0.63654226    -0.05600
Co315      Co  0.99073136  0.02412413  0.52728967     0.74200
N316        N  0.91119101  0.04333364  0.57336062    -0.24700
Co317      Co  0.88580713  0.00827584  0.54913502     0.74100
C318        C  0.81419616  0.94894222  0.64755456     0.43900
N319        N  0.93669381  0.87725354  0.60434452     0.02300
N320        N  0.85629292  0.97092822  0.59744929     0.02400
N321        N  0.96837825  0.07948433  0.96256134    -0.45600
H322        H  0.04186297  0.04597056  0.58057913     0.08100
N323        N  0.95115495  0.04962458  0.56472397     0.02700
N324        N  0.86316395  0.97123730  0.52490078     0.02400
C325        C  0.83364007  0.94932405  0.99267087     0.44000
N326        N  0.97661850  0.88365241  0.59642124    -0.24200
C327        C  0.05316412  0.01235066  0.95900244    -0.05100
N328        N  0.05097289  0.94522986  0.59559555    -0.45300
N329        N  0.84213008  0.98331423  0.00097064    -0.45500
C330        C  0.07605253  0.97780415  0.94762841     0.43800
N331        N  0.95574619  0.05134227  0.99218914     0.02700
N332        N  0.98195738  0.88328673  0.52408309    -0.24200
N333        N  0.02414612  0.99664272  0.56319146    -0.24700
N334        N  0.94198876  0.87729409  0.53215789     0.02300
H335        H  0.03282966  0.86304929  0.98813078     0.08200
H336        H  0.85137744  0.88259447  0.51459999     0.08200
N337        N  0.91565881  0.04558153  0.50084163    -0.24800
N338        N  0.86273498  0.93113343  0.60523279    -0.24400
N339        N  0.03630886  0.95627228  0.99891249     0.02700
C340        C  0.92770422  0.07942011  0.60609971     0.44100
C341        C  0.99161741  0.86186067  0.62292419    -0.05600
N342        N  0.86901396  0.93134045  0.53280527    -0.24400
H343        H  0.83446525  0.88218195  0.64879075     0.08200
N344        N  0.96224805  0.07115006  0.58358362    -0.45600
H345        H  0.02371207  0.85914039  0.62313297     0.08200
C346        C  0.96648700  0.84369621  0.99347266     0.43900
C347        C  0.04142732  0.01364951  0.58219116    -0.05100
Co348      Co  0.00710782  0.91941671  0.54771061     0.73800
N349        N  0.92325224  0.85131793  0.63504449    -0.45300
C350        C  0.93474379  0.09312801  0.95076615     0.44200
N351        N  0.06399306  0.94419169  0.97387628    -0.45300
Co352      Co  0.90206435  0.90348383  0.56896068     0.73900
C353        C  0.85124118  0.91473265  0.51385453    -0.05600
C354        C  0.89356722  0.06129134  0.59918611    -0.05200
N355        N  0.02952339  0.99604408  0.99093429    -0.24700
N356        N  0.82748074  0.98272430  0.62188624    -0.45500
H357        H  0.86732342  0.07371057  0.97706702     0.08200
C358        C  0.00021446  0.86317541  0.99988186    -0.05600
Cl359      Cl  0.94643317  0.96383334  0.54819212    -0.48600
C360        C  0.95610000  0.84045683  0.64850796     0.43900
H361        H  0.05553033  0.04459667  0.94628871     0.08100
N362        N  0.93146524  0.85379356  0.51452566    -0.45300
C363        C  0.00452962  0.77240444  0.93368727    -0.26900
C364        C  0.96741775  0.76099525  0.92916024     0.06700
C365        C  0.93062135  0.77899006  0.94407693     0.26300
C366        C  0.93097155  0.80642577  0.96425942    -0.11400
C367        C  0.96791201  0.81678279  0.96984590    -0.25300
C368        C  0.00495563  0.80009539  0.95368419     0.37100
C369        C  0.96698680  0.72685610  0.91269617     0.06700
F370        F  0.89420124  0.76957796  0.93960774    -0.19100
H371        H  0.90203202  0.81917629  0.97597053     0.16600
F372        F  0.04145169  0.80874620  0.45835228    -0.22800
H373        H  0.03319247  0.75837428  0.92307400     0.18400
C374        C  0.99612075  0.72415791  0.88170250     0.26300
C375        C  0.99943854  0.68836409  0.87002273    -0.11300
C376        C  0.97366236  0.65511109  0.88902588    -0.25400
C377        C  0.94284750  0.65886327  0.91851886     0.37300
C378        C  0.93972158  0.69428479  0.93031160    -0.27000
F379        F  0.02202934  0.75562004  0.86331994    -0.19100
H380        H  0.02328420  0.68594684  0.84716197     0.16600
F381        F  0.91657589  0.62758333  0.93662362    -0.22800
H382        H  0.91726726  0.69530951  0.95434065     0.18400
C383        C  0.92957320  0.74231554  0.71934688    -0.26900
C384        C  0.96059450  0.74046113  0.73690950     0.06700
C385        C  0.98904879  0.77271427  0.72599508     0.26300
C386        C  0.98723327  0.80522259  0.69737007    -0.11400
C387        C  0.95660874  0.80668307  0.67952533    -0.25300
C388        C  0.92729803  0.77520949  0.69113361     0.37100
C389        C  0.96399106  0.70431168  0.76568380     0.06700
F390        F  0.01832286  0.77309546  0.74326409    -0.19100
H391        H  0.00967979  0.82945797  0.68928523     0.16600
F392        F  0.89740044  0.77527519  0.67441216    -0.22800
H393        H  0.90761474  0.71771383  0.72692706     0.18400
C394        C  0.92943786  0.68860423  0.79282373     0.26300
C395        C  0.93356503  0.65500890  0.81999930    -0.11300
C396        C  0.97199789  0.63663671  0.82050394    -0.25400
C397        C  0.00638460  0.65210407  0.79352094     0.37300
C398        C  0.00231312  0.68526386  0.76615212    -0.27000
F399        F  0.89213677  0.70684597  0.79394729    -0.19100
H400        H  0.90713118  0.64410114  0.84135179     0.16600
F401        F  0.04417196  0.63597634  0.79448759    -0.22800
H402        H  0.02929365  0.69638532  0.74545908     0.18400
C403        C  0.90089628  0.18670599  0.88934170    -0.26900
C404        C  0.93661500  0.19578430  0.86195478     0.06700
C405        C  0.97158454  0.17092279  0.86440496     0.26300
C406        C  0.97060661  0.13800785  0.89344210    -0.11400
C407        C  0.93471099  0.12853119  0.92047886    -0.25300
C408        C  0.89976408  0.15343714  0.91819792     0.37100
C409        C  0.93719390  0.23068976  0.83085686     0.06700
F410        F  0.00643570  0.17756110  0.83822924    -0.19100
H411        H  0.99790282  0.11933863  0.89446750     0.16600
F412        F  0.86481959  0.14663590  0.94421761    -0.22800
H413        H  0.87380899  0.20574236  0.88861818     0.18400
C414        C  0.90506370  0.23661580  0.81383585     0.26300
C415        C  0.90741458  0.26774439  0.78332520    -0.11300
C416        C  0.94202457  0.29315664  0.76871228    -0.25400
C417        C  0.97340791  0.28826921  0.78631409     0.37300
C418        C  0.97078185  0.25763291  0.81715273    -0.27000
F419        F  0.87244167  0.21092936  0.82549116    -0.19100
H420        H  0.88293163  0.27096562  0.77015183     0.16600
F421        F  0.00785638  0.31136705  0.77253157    -0.22800
H422        H  0.99562056  0.25437660  0.82993978     0.18400
C423        C  0.90007345  0.23059648  0.67525103    -0.26900
C424        C  0.92225360  0.19566673  0.68715824     0.06700
C425        C  0.94811503  0.19739482  0.70874332     0.26300
C426        C  0.95372487  0.23433721  0.71620579    -0.11400
C427        C  0.93330106  0.26978552  0.70252805    -0.25300
C428        C  0.90551879  0.26735964  0.68280755     0.37100
C429        C  0.92317516  0.16029983  0.67211437     0.06700
F430        F  0.96931058  0.16383753  0.72123036    -0.19100
H431        H  0.97563210  0.23566882  0.73110110     0.16600
F432        F  0.88496979  0.30103491  0.66953642    -0.22800
H433        H  0.88043437  0.23010531  0.65820412     0.18400
C434        C  0.88676628  0.14366441  0.67074120     0.26300
C435        C  0.88836955  0.11604820  0.65027785    -0.11300
C436        C  0.92625318  0.10481367  0.63078090    -0.25400
C437        C  0.96274306  0.11963977  0.63393382     0.37300
C438        C  0.96106354  0.14715033  0.65436040    -0.27000
F439        F  0.84967203  0.15514935  0.68828416    -0.19100
H440        H  0.85983236  0.10466008  0.64883208     0.16600
F441        F  0.00012658  0.10895866  0.61625606    -0.22800
H442        H  0.98947144  0.15997494  0.65470594     0.18400
C443        C  0.94174872  0.47777794  0.83154588    -0.26900
C444        C  0.96337500  0.48349829  0.79649143     0.06700
C445        C  0.98576828  0.51998846  0.77974007     0.26300
C446        C  0.98951598  0.54792385  0.79875874    -0.11400
C447        C  0.96989113  0.54065922  0.83436880    -0.25300
C448        C  0.94441866  0.50620093  0.85012245     0.37100
C449        C  0.96309447  0.45056118  0.77848529     0.06700
F450        F  0.00423994  0.52862407  0.74511513    -0.19100
H451        H  0.00913590  0.57415033  0.78587055     0.16600
F452        F  0.92276149  0.49936578  0.88395010    -0.22800
H453        H  0.92376863  0.45045049  0.84512256     0.18400
C454        C  0.99944533  0.43850041  0.75722966     0.26300
C455        C  0.99850277  0.40752257  0.74059203    -0.11300
C456        C  0.96191067  0.38681856  0.74598726    -0.25400
C457        C  0.92599214  0.39738653  0.76823026     0.37300
C458        C  0.92652623  0.42924791  0.78405542    -0.27000
F459        F  0.03607696  0.45593325  0.75300001    -0.19100
H460        H  0.02635659  0.39980139  0.72319895     0.16600
F461        F  0.88994746  0.37855524  0.77296818    -0.22800
H462        H  0.89806390  0.43778158  0.80016784     0.18400
C463        C  0.75380397  0.91609430  0.95534816    -0.26900
C464        C  0.74767581  0.95249781  0.93150703     0.06700
C465        C  0.77234412  0.98653984  0.92593939     0.26300
C466        C  0.80127466  0.98463873  0.94520987    -0.11400
C467        C  0.80619312  0.94879694  0.97014801    -0.25300
C468        C  0.78284302  0.91409630  0.97455936     0.37100
C469        C  0.71204461  0.95618579  0.91629958     0.06700
F470        F  0.76764604  0.02193563  0.90256355    -0.19100
H471        H  0.81925285  0.01157303  0.94117964     0.16600
F472        F  0.78579207  0.87917032  0.99900365    -0.22800
H473        H  0.73447503  0.88981529  0.96052154     0.18400
C474        C  0.70404117  0.92658128  0.90026157     0.26300
C475        C  0.66703095  0.92753728  0.89068623    -0.11300
C476        C  0.63767485  0.95781398  0.89723294    -0.25400
C477        C  0.64643438  0.98831846  0.91189671     0.37300
C478        C  0.68335664  0.98748572  0.92128421    -0.27000
F479        F  0.73146757  0.89621389  0.89479173    -0.19100
H480        H  0.66051535  0.90363702  0.87963884     0.16600
F481        F  0.61875783  0.01831674  0.91799608    -0.22800
H482        H  0.68868338  0.01025177  0.93401688     0.18400
C483        C  0.65017938  0.91723980  0.78455844    -0.26900
C484        C  0.67938923  0.94874675  0.76942649     0.06700
C485        C  0.67666406  0.98177349  0.78493091     0.26300
C486        C  0.64581428  0.98291824  0.81494691    -0.11400
C487        C  0.61700961  0.95130504  0.83024660    -0.25300
C488        C  0.61918285  0.91850270  0.81469751     0.37100
C489        C  0.71268026  0.94741209  0.73764162     0.06700
F490        F  0.70469545  0.01236142  0.77173167    -0.19100
H491        H  0.64461572  0.00834158  0.82668608     0.16600
F492        F  0.59218355  0.88715160  0.82934788    -0.22800
H493        H  0.65138648  0.89164943  0.77301157     0.18400
C494        C  0.73806487  0.91280316  0.73581406     0.26300
C495        C  0.77070531  0.91318674  0.70637555    -0.11300
C496        C  0.77880275  0.94806254  0.67827247    -0.25400
C497        C  0.75286293  0.98233367  0.67995835     0.37300
C498        C  0.72021872  0.98181295  0.70919443    -0.27000
F499        F  0.73233650  0.87920772  0.76301193    -0.19100
H500        H  0.79016507  0.88642025  0.70595374     0.16600
F501        F  0.75875468  0.01647173  0.65329313    -0.22800
H502        H  0.70074523  0.00859059  0.70966135     0.18400
C503        C  0.21729412  0.95668307  0.80507884    -0.26900
C504        C  0.21166553  0.98590853  0.82486431     0.06700
C505        C  0.23991835  0.01825190  0.81448891     0.26300
C506        C  0.27127161  0.02266641  0.78382747    -0.11400
C507        C  0.27531744  0.99493328  0.76296876    -0.25300
C508        C  0.24890178  0.96105648  0.77442069     0.37100
C509        C  0.17599138  0.98320054  0.85573330     0.06700
F510        F  0.23707563  0.04576772  0.83393031    -0.19100
H511        H  0.29164419  0.04868160  0.77559467     0.16600
F512        F  0.25331273  0.93266139  0.75564289    -0.22800
H513        H  0.19641858  0.93112159  0.81281050     0.18400
C514        C  0.15022354  0.01719216  0.85925843     0.26300
C515        C  0.11778027  0.01508571  0.88896040    -0.11300
C516        C  0.10983078  0.97895379  0.91569561    -0.25400
C517        C  0.13469046  0.94442002  0.91156551     0.37300
C518        C  0.16738261  0.94665311  0.88189594    -0.27000
F519        F  0.15590150  0.05232543  0.83361050    -0.20200
H520        H  0.09876795  0.04188501  0.89084103     0.16600
F521        F  0.12800259  0.90862899  0.93639329    -0.22800
H522        H  0.18652457  0.91996479  0.87966058     0.18400
C523        C  0.21821207  0.97040913  0.66124900    -0.26900
C524        C  0.18201092  0.98983588  0.67512974     0.06700
C525        C  0.18248457  0.01348174  0.69869038     0.26300
C526        C  0.21918589  0.01874606  0.70700742    -0.11400
C527        C  0.25555608  0.00031790  0.69207372    -0.25300
C528        C  0.25464624  0.97555778  0.66958520     0.37100
C529        C  0.14520508  0.98696693  0.66264558     0.06700
F530        F  0.14768219  0.03165785  0.71336461    -0.19100
H531        H  0.21944981  0.03806520  0.72429991     0.16600
F532        F  0.28919068  0.95662052  0.65537879    -0.22800
H533        H  0.21858317  0.95221095  0.64295214     0.18400
C534        C  0.12581082  0.02242148  0.64747591     0.26300
C535        C  0.09624685  0.01958143  0.62983739    -0.11300
C536        C  0.08592510  0.98150101  0.62660372    -0.25400
C537        C  0.10358535  0.94587088  0.64359758     0.37300
C538        C  0.13294978  0.94872318  0.66141006    -0.27000
F539        F  0.13760059  0.06000105  0.64732205    -0.19100
H540        H  0.08288676  0.04754186  0.61744321     0.16600
F541        F  0.09383177  0.90835512  0.64191540    -0.22800
H542        H  0.14742991  0.92104398  0.67312087     0.18400
C543        C  0.45298706  0.94223075  0.83734784    -0.26900
C544        C  0.46251270  0.96947585  0.80421531     0.06700
C545        C  0.50233496  0.98636729  0.79097980     0.26300
C546        C  0.53059631  0.97833816  0.81159220    -0.11400
C547        C  0.52025868  0.95224366  0.84519637    -0.25300
C548        C  0.48173559  0.93293167  0.85723709     0.37100
C549        C  0.43027767  0.98120862  0.78455812     0.06700
F550        F  0.51383662  0.01122539  0.75840090    -0.19100
H551        H  0.55966967  0.99420751  0.80178327     0.16600
F552        F  0.47115337  0.90613592  0.88899902    -0.22800
H553        H  0.42263616  0.92912293  0.84865995     0.18400
C554        C  0.40239391  0.95210564  0.78433260     0.26300
C555        C  0.37215117  0.96370754  0.76599723    -0.11300
C556        C  0.36996461  0.00400061  0.74666377    -0.25400
C557        C  0.39728413  0.03321319  0.74693969     0.37300
C558        C  0.42653253  0.02207667  0.76637501    -0.27000
F559        F  0.40559180  0.91200911  0.80019893    -0.19100
H560        H  0.35200891  0.94062353  0.76512310     0.16600
F561        F  0.39607360  0.07232757  0.72792005    -0.22800
H562        H  0.44646010  0.04548681  0.76692575     0.18400
loop_ 
_geom_bond_atom_site_label_1 
_geom_bond_atom_site_label_2 
_geom_bond_distance 
_geom_bond_site_symmetry_2 
_ccdc_geom_bond_type 
N1            C5   1.356       .  A
N1            C2   1.356       .  A
N1          C226   1.444   1_545  S
C2            C3   1.381       .  A
C2          C275   1.469       .  S
C3            C4   1.372       .  A
C3            H6   1.082       .  S
C4            C5   1.383       .  A
C4            H7   1.082       .  S
C5          C246   1.473       .  S
N8           C12   1.356       .  A
N8            C9   1.360       .  A
N8          C206   1.444       .  S
C9           C10   1.387       .  A
C9          C266   1.481       .  S
C10          C11   1.369       .  A
C10          H13   1.082       .  S
C11          C12   1.379       .  A
C11          H14   1.082       .  S
C12         C195   1.471       .  S
N15          C19   1.358       .  A
N15          C16   1.358       .  A
N15         C135   1.447       .  S
C16          C17   1.380       .  A
C16         C175   1.469       .  S
C17          C18   1.371       .  A
C17          H20   1.082       .  S
C18          C19   1.383       .  A
C18          H21   1.082       .  S
C19         C146   1.476       .  S
N22          C26   1.353       .  A
N22          C23   1.358       .  A
N22         C115   1.435       .  S
C23          C24   1.386       .  A
C23         C166   1.483       .  S
C24          C25   1.372       .  A
C24          H27   1.082       .  S
C25          C26   1.380       .  A
C25          H28   1.082       .  S
C26          C95   1.474       .  S
C29          N47   1.351       .  A
C29          C66   1.459   1_565  S
C29         C255   1.477       .  S
N30          N47   1.323       .  A
N30          N52   1.318       .  A
N30         Co67   2.077       .  S
C31         N337   1.343       .  A
C31          C69   1.465       .  S
C31          H76   1.081       .  S
H32          C73   1.081       .  S
C33          N57   1.345       .  A
C33          C37   1.466       .  S
C33          H62   1.081       .  S
Co34         N52   2.076   1_645  S
Co34         N42   2.084       .  S
Co34        N355   2.093   1_644  S
Co34        N331   2.087   1_554  S
Co34        Cl78   2.449   1_545  S
N35          C73   1.341       .  A
N35          N42   1.319       .  A
N35         Co36   2.077       .  S
Co36         N39   2.093   1_545  S
Co36         N56   2.095       .  S
Co36         N43   2.076   1_545  S
Co36        Cl78   2.451   1_545  S
C37          N75   1.351       .  A
C37         C215   1.489       .  S
N38          N45   1.320       .  A
N38          N68   1.324       .  A
N38         Co71   2.080       .  S
N39          N57   1.319       .  A
N39          N75   1.325       .  A
N40          C69   1.353       .  A
N40          N50   1.326       .  A
H41          C66   1.081       .  S
N42          N63   1.321       .  A
N43          N61   1.320       .  A
N43         N329   1.322       .  A
C44          N48   1.349       .  A
C44         C186   1.470       .  S
C44         C353   1.459       .  S
N45          C60   1.342       .  A
N45         Co67   2.092   1_655  S
C46          N74   1.343   1_545  A
C46          C49   1.467   1_545  S
C46          H80   1.081       .  S
N48         N324   1.322       .  A
C49          N70   1.352       .  A
C49         C235   1.490       .  S
N50         N337   1.319       .  A
N50        Co315   2.087       .  S
N51         C358   1.341   1_654  A
N51          N53   1.319       .  A
N51         Co67   2.081   1_655  S
N52          C66   1.338   1_565  A
N53          N81   1.323       .  A
N53         Co71   2.084       .  S
H54          C77   1.080       .  S
H55          C72   1.081       .  S
N56         C312   1.343   1_554  A
N56         N331   1.319   1_554  A
N57         Co71   2.090       .  S
N58          N70   1.326       .  A
N58          N74   1.321       .  A
N58        Co348   2.096       .  S
C59          N63   1.348       .  A
C59          C73   1.462       .  S
C59         C155   1.477       .  S
C60          C79   1.463       .  S
C60          H64   1.082   1_655  S
N61          C72   1.338       .  A
N61         Co71   2.078       .  S
C65         N362   1.350       .  A
C65          C77   1.464   1_655  S
C65          C86   1.481       .  S
Co67        N339   2.096   1_554  S
Co67        Cl78   2.453   1_455  S
N68          C79   1.350       .  A
C69         C126   1.488       .  S
Co71        Cl78   2.452       .  S
C72         C325   1.459   1_554  S
N74        Co315   2.093   1_465  S
C77         N332   1.341   1_455  A
C79         C106   1.479       .  S
N81         C346   1.350   1_554  A
C82          C83   1.405   1_455  A
C82          C87   1.398       .  A
C82          H92   1.083       .  S
C83          C84   1.406       .  A
C83          C88   1.483       .  S
C84          C85   1.396       .  A
C84          F89   1.358       .  S
C85          C86   1.406       .  A
C85          H90   1.084       .  S
C86          C87   1.409   1_655  A
C87         F372   1.355       .  S
C88          C93   1.410       .  A
C88          C97   1.404       .  A
F91         C368   1.355       .  S
C93          C94   1.401       .  A
C93          F98   1.357   1_655  S
C94          C95   1.402       .  A
C94          H99   1.082   1_655  S
C95          C96   1.403       .  A
C96          C97   1.392       .  A
C96         F100   1.358       .  S
C97         H101   1.083       .  S
C102        C103   1.405       .  A
C102        C107   1.399       .  A
C102        H112   1.083       .  S
C103        C104   1.409       .  A
C103        C108   1.487       .  S
C104        C105   1.399       .  A
C104        F109   1.358   1_655  S
C105        C106   1.403       .  A
C105        H110   1.083   1_655  S
C106        C107   1.408       .  A
C107        F111   1.357       .  S
C108        C113   1.410       .  A
C108        C117   1.406   1_655  A
C113        C114   1.401       .  A
C113        F118   1.357       .  S
C114        C115   1.401       .  A
C114        H119   1.083       .  S
C115        C116   1.402   1_655  A
C116        C117   1.396       .  A
C116        F120   1.357       .  S
C117        H121   1.083       .  S
C122        C123   1.407       .  A
C122        C127   1.403       .  A
C122        H132   1.083       .  S
C123        C124   1.410       .  A
C123        C128   1.496       .  S
C124        C125   1.401       .  A
C124        F129   1.357   1_655  S
C125        C126   1.404       .  A
C125        H130   1.084       .  S
C126        C127   1.410       .  A
C127        F131   1.356       .  S
C128        C133   1.410       .  A
C128        C137   1.408       .  A
C133        C134   1.402       .  A
C133        F138   1.357       .  S
C134        C135   1.405       .  A
C134        H139   1.083       .  S
C135        C136   1.406       .  A
C136        C137   1.401       .  A
C136        F140   1.356   1_655  S
C137        H141   1.083       .  S
C142        C143   1.402       .  A
C142        C147   1.393       .  A
C142        H152   1.083       .  S
C143        C144   1.407       .  A
C143        C148   1.477       .  S
C144        C145   1.398       .  A
C144        F149   1.357       .  S
C145        C146   1.403       .  A
C145        H150   1.083       .  S
C146        C147   1.405       .  A
C147        F151   1.358       .  S
C148        C153   1.405       .  A
C148        C157   1.402       .  A
C153        C154   1.398       .  A
C153        F158   1.358       .  S
C154        C155   1.405       .  A
C154        H159   1.082       .  S
C155        C156   1.408       .  A
C156        C157   1.393       .  A
C156        F160   1.357   1_655  S
C157        H161   1.083       .  S
C162        C163   1.403       .  A
C162        C167   1.392       .  A
C162        H172   1.083       .  S
C163        C164   1.412       .  A
C163        C168   1.489       .  S
C164        C165   1.402       .  A
C164        F169   1.357   1_655  S
C165        C166   1.402       .  A
C165        H170   1.080   1_655  S
C166        C167   1.408       .  A
C167        F171   1.358       .  S
C168        C173   1.410       .  A
C168        C177   1.409       .  A
C173        C174   1.397       .  A
C173        F178   1.357   1_655  S
C174        C175   1.401       .  A
C174        H179   1.083   1_655  S
C175        C176   1.401       .  A
C176        C177   1.398       .  A
C176        F180   1.358       .  S
C177        H181   1.083       .  S
C182        C183   1.403       .  A
C182        C187   1.395       .  A
C182        H192   1.083       .  S
C183        C184   1.405       .  A
C183        C188   1.474       .  S
C184        C185   1.394       .  A
C184        F189   1.358   1_565  S
C185        C186   1.403       .  A
C185        H190   1.084   1_565  S
C186        C187   1.407       .  A
C187        F191   1.356       .  S
C188        C193   1.406       .  A
C188        C197   1.403       .  A
C193        C194   1.398       .  A
C193        F198   1.357       .  S
C194        C195   1.402       .  A
C194        H199   1.083       .  S
C195        C196   1.403       .  A
C196        C197   1.391       .  A
C196        F200   1.358   1_565  S
C197        H201   1.083   1_565  S
C202        C203   1.408       .  A
C202        C207   1.404       .  A
C202        H212   1.083       .  S
C203        C204   1.409       .  A
C203        C208   1.492       .  S
C204        C205   1.398       .  A
C204        F209   1.357   1_565  S
C205        C206   1.403       .  A
C205        H210   1.083   1_565  S
C206        C207   1.405       .  A
C207        F211   1.357       .  S
C208        C213   1.409       .  A
C208        C217   1.404       .  A
C213        C214   1.405       .  A
C213        F218   1.357       .  S
C214        C215   1.407       .  A
C214        H219   1.083       .  S
C215        C216   1.409       .  A
C216        C217   1.399       .  A
C216        F220   1.357   1_565  S
C217        H221   1.083   1_565  S
C222        C223   1.407       .  A
C222        C227   1.403       .  A
C222        H232   1.083       .  S
C223        C224   1.409   1_565  A
C223        C228   1.491       .  S
C224        C225   1.399       .  A
C224        F229   1.357       .  S
C225        C226   1.402   1_545  A
C225        H230   1.083       .  S
C226        C227   1.407       .  A
C227        F231   1.357       .  S
C228        C233   1.408   1_565  A
C228        C237   1.405       .  A
C233        C234   1.400       .  A
C233        F238   1.358       .  S
C234        C235   1.405   1_545  A
C234        H239   1.082       .  S
C235        C236   1.411       .  A
C236        C237   1.403       .  A
C236        F240   1.357       .  S
C237        H241   1.083       .  S
C242        C243   1.403       .  A
C242        C247   1.390       .  A
C242        H252   1.083       .  S
C243        C244   1.408   1_565  A
C243        C248   1.477       .  S
C244        C245   1.400       .  A
C244        F249   1.357       .  S
C245        C246   1.403       .  A
C245        H250   1.083       .  S
C246        C247   1.403   1_545  A
C247        F251   1.358       .  S
C248        C253   1.405   1_565  A
C248        C257   1.404       .  A
C253        C254   1.395       .  A
C253        F258   1.358       .  S
C254        C255   1.406   1_545  A
C254        H259   1.082       .  S
C255        C256   1.407       .  A
C256        C257   1.395       .  A
C256        F260   1.357       .  S
C257        H261   1.084       .  S
C262        C263   1.404       .  A
C262        C267   1.392       .  A
C262        H272   1.082       .  S
C263        C264   1.412       .  A
C263        C268   1.489       .  S
C264        C265   1.399       .  A
C264        F269   1.357   1_565  S
C265        C266   1.403       .  A
C265        H270   1.081       .  S
C266        C267   1.406       .  A
C267        F271   1.358       .  S
C268        C273   1.412       .  A
C268        C277   1.408   1_565  A
C273        C274   1.396       .  A
C273        F278   1.357       .  S
C274        C275   1.399   1_565  A
C274        H279   1.084       .  S
C275        C276   1.402       .  A
C276        C277   1.396       .  A
C276        F280   1.358       .  S
C277        H281   1.082       .  S
N282        C286   1.356       .  A
N282        C283   1.356       .  A
N282        C507   1.444   1_545  S
C283        C284   1.381       .  A
C283        C556   1.469       .  S
C284        C285   1.372       .  A
C284        H287   1.082       .  S
C285        C286   1.383       .  A
C285        H288   1.082       .  S
C286        C527   1.473       .  S
N289        C293   1.356       .  A
N289        C290   1.360       .  A
N289        C487   1.444       .  S
C290        C291   1.387       .  A
C290        C547   1.481       .  S
C291        C292   1.369       .  A
C291        H294   1.082       .  S
C292        C293   1.379       .  A
C292        H295   1.082       .  S
C293        C476   1.471       .  S
N296        C300   1.358       .  A
N296        C297   1.358       .  A
N296        C416   1.447       .  S
C297        C298   1.380       .  A
C297        C456   1.470       .  S
C298        C299   1.371       .  A
C298        H301   1.082       .  S
C299        C300   1.383       .  A
C299        H302   1.082       .  S
C300        C427   1.476       .  S
N303        C307   1.353       .  A
N303        C304   1.358       .  A
N303        C396   1.435       .  S
C304        C305   1.386       .  A
C304        C447   1.483       .  S
C305        C306   1.372       .  A
C305        H308   1.082       .  S
C306        C307   1.380       .  A
C306        H309   1.082       .  S
C307        C376   1.474       .  S
C310        N328   1.351       .  A
C310        C347   1.459   1_565  S
C310        C536   1.477       .  S
N311        N328   1.323       .  A
N311        N333   1.318       .  A
N311       Co348   2.077       .  S
C312        C350   1.465       .  S
C312        H357   1.081       .  S
H313        C354   1.081       .  S
C314        N338   1.345       .  A
C314        C318   1.466       .  S
C314        H343   1.081       .  S
Co315       N333   2.076   1_645  S
Co315       N323   2.084       .  S
Co315      Cl359   2.449   1_545  S
N316        C354   1.341       .  A
N316        N323   1.319       .  A
N316       Co317   2.077       .  S
Co317       N320   2.093   1_545  S
Co317       N337   2.095       .  S
Co317       N324   2.076   1_545  S
Co317      Cl359   2.451   1_545  S
C318        N356   1.351       .  A
C318        C496   1.489       .  S
N319        N326   1.320       .  A
N319        N349   1.324       .  A
N319       Co352   2.080       .  S
N320        N338   1.319       .  A
N320        N356   1.325       .  A
N321        C350   1.353       .  A
N321        N331   1.326       .  A
H322        C347   1.081       .  S
N323        N344   1.321       .  A
N324        N342   1.320       .  A
C325        N329   1.349   1_556  A
C325        C467   1.470       .  S
N326        C341   1.342       .  A
N326       Co348   2.093   1_655  S
C327        N355   1.343   1_545  A
C327        C330   1.467   1_545  S
C327        H361   1.081       .  S
C330        N351   1.352       .  A
C330        C516   1.490       .  S
N332        N334   1.319       .  A
N332       Co348   2.081   1_655  S
N333        C347   1.338   1_565  A
N334        N362   1.323       .  A
N334       Co352   2.084       .  S
H335        C358   1.080       .  S
H336        C353   1.081       .  S
N338       Co352   2.090       .  S
N339        N351   1.326       .  A
N339        N355   1.321       .  A
C340        N344   1.348       .  A
C340        C354   1.462       .  S
C340        C436   1.477       .  S
C341        C360   1.463       .  S
C341        H345   1.082   1_655  S
N342        C353   1.338       .  A
N342       Co352   2.078       .  S
C346        C358   1.465   1_655  S
C346        C367   1.481       .  S
Co348      Cl359   2.453   1_455  S
N349        C360   1.350       .  A
C350        C407   1.488       .  S
Co352      Cl359   2.452       .  S
C360        C387   1.479       .  S
C363        C364   1.405   1_455  A
C363        C368   1.398       .  A
C363        H373   1.083       .  S
C364        C365   1.406       .  A
C364        C369   1.484       .  S
C365        C366   1.396       .  A
C365        F370   1.358       .  S
C366        C367   1.406       .  A
C366        H371   1.084       .  S
C367        C368   1.409   1_655  A
C369        C374   1.410       .  A
C369        C378   1.404       .  A
C374        C375   1.401       .  A
C374        F379   1.357   1_655  S
C375        C376   1.402       .  A
C375        H380   1.082   1_655  S
C376        C377   1.403       .  A
C377        C378   1.392       .  A
C377        F381   1.358       .  S
C378        H382   1.083       .  S
C383        C384   1.405       .  A
C383        C388   1.399       .  A
C383        H393   1.083       .  S
C384        C385   1.409       .  A
C384        C389   1.487       .  S
C385        C386   1.399       .  A
C385        F390   1.358   1_655  S
C386        C387   1.403       .  A
C386        H391   1.083   1_655  S
C387        C388   1.408       .  A
C388        F392   1.357       .  S
C389        C394   1.410       .  A
C389        C398   1.406   1_655  A
C394        C395   1.401       .  A
C394        F399   1.357       .  S
C395        C396   1.401       .  A
C395        H400   1.083       .  S
C396        C397   1.402   1_655  A
C397        C398   1.396       .  A
C397        F401   1.357       .  S
C398        H402   1.083       .  S
C403        C404   1.407       .  A
C403        C408   1.403       .  A
C403        H413   1.083       .  S
C404        C405   1.410       .  A
C404        C409   1.496       .  S
C405        C406   1.401       .  A
C405        F410   1.357   1_655  S
C406        C407   1.404       .  A
C406        H411   1.084       .  S
C407        C408   1.410       .  A
C408        F412   1.356       .  S
C409        C414   1.410       .  A
C409        C418   1.408       .  A
C414        C415   1.402       .  A
C414        F419   1.357       .  S
C415        C416   1.405       .  A
C415        H420   1.083       .  S
C416        C417   1.406       .  A
C417        C418   1.401       .  A
C417        F421   1.356   1_655  S
C418        H422   1.083       .  S
C423        C424   1.402       .  A
C423        C428   1.393       .  A
C423        H433   1.083       .  S
C424        C425   1.407       .  A
C424        C429   1.477       .  S
C425        C426   1.398       .  A
C425        F430   1.357       .  S
C426        C427   1.403       .  A
C426        H431   1.083       .  S
C427        C428   1.405       .  A
C428        F432   1.358       .  S
C429        C434   1.405       .  A
C429        C438   1.402       .  A
C434        C435   1.398       .  A
C434        F439   1.358       .  S
C435        C436   1.405       .  A
C435        H440   1.082       .  S
C436        C437   1.408       .  A
C437        C438   1.393       .  A
C437        F441   1.358   1_655  S
C438        H442   1.083       .  S
C443        C444   1.403       .  A
C443        C448   1.392       .  A
C443        H453   1.083       .  S
C444        C445   1.412       .  A
C444        C449   1.489       .  S
C445        C446   1.402       .  A
C445        F450   1.357   1_655  S
C446        C447   1.402       .  A
C446        H451   1.080   1_655  S
C447        C448   1.408       .  A
C448        F452   1.358       .  S
C449        C454   1.410       .  A
C449        C458   1.409       .  A
C454        C455   1.397       .  A
C454        F459   1.357   1_655  S
C455        C456   1.401       .  A
C455        H460   1.083   1_655  S
C456        C457   1.401       .  A
C457        C458   1.398       .  A
C457        F461   1.358       .  S
C458        H462   1.083       .  S
C463        C464   1.403       .  A
C463        C468   1.395       .  A
C463        H473   1.083       .  S
C464        C465   1.405       .  A
C464        C469   1.474       .  S
C465        C466   1.394       .  A
C465        F470   1.358   1_565  S
C466        C467   1.403       .  A
C466        H471   1.084   1_565  S
C467        C468   1.407       .  A
C468        F472   1.356       .  S
C469        C474   1.406       .  A
C469        C478   1.403       .  A
C474        C475   1.398       .  A
C474        F479   1.357       .  S
C475        C476   1.402       .  A
C475        H480   1.083       .  S
C476        C477   1.403       .  A
C477        C478   1.391       .  A
C477        F481   1.358   1_565  S
C478        H482   1.083   1_565  S
C483        C484   1.408       .  A
C483        C488   1.404       .  A
C483        H493   1.083       .  S
C484        C485   1.409       .  A
C484        C489   1.492       .  S
C485        C486   1.398       .  A
C485        F490   1.357   1_565  S
C486        C487   1.402       .  A
C486        H491   1.083   1_565  S
C487        C488   1.405       .  A
C488        F492   1.357       .  S
C489        C494   1.409       .  A
C489        C498   1.404       .  A
C494        C495   1.405       .  A
C494        F499   1.357       .  S
C495        C496   1.407       .  A
C495        H500   1.083       .  S
C496        C497   1.409       .  A
C497        C498   1.399       .  A
C497        F501   1.357   1_565  S
C498        H502   1.083   1_565  S
C503        C504   1.407       .  A
C503        C508   1.403       .  A
C503        H513   1.083       .  S
C504        C505   1.409   1_565  A
C504        C509   1.491       .  S
C505        C506   1.399       .  A
C505        F510   1.357       .  S
C506        C507   1.402   1_545  A
C506        H511   1.083       .  S
C507        C508   1.407       .  A
C508        F512   1.357       .  S
C509        C514   1.408   1_565  A
C509        C518   1.405       .  A
C514        C515   1.400       .  A
C514        F519   1.358       .  S
C515        C516   1.405   1_545  A
C515        H520   1.082       .  S
C516        C517   1.411       .  A
C517        C518   1.403       .  A
C517        F521   1.357       .  S
C518        H522   1.083       .  S
C523        C524   1.403       .  A
C523        C528   1.390       .  A
C523        H533   1.083       .  S
C524        C525   1.408   1_565  A
C524        C529   1.477       .  S
C525        C526   1.400       .  A
C525        F530   1.357       .  S
C526        C527   1.403       .  A
C526        H531   1.083       .  S
C527        C528   1.403   1_545  A
C528        F532   1.358       .  S
C529        C534   1.405   1_565  A
C529        C538   1.404       .  A
C534        C535   1.395       .  A
C534        F539   1.358       .  S
C535        C536   1.406   1_545  A
C535        H540   1.082       .  S
C536        C537   1.407       .  A
C537        C538   1.395       .  A
C537        F541   1.357       .  S
C538        H542   1.084       .  S
C543        C544   1.404       .  A
C543        C548   1.392       .  A
C543        H553   1.082       .  S
C544        C545   1.412       .  A
C544        C549   1.489       .  S
C545        C546   1.399       .  A
C545        F550   1.357   1_565  S
C546        C547   1.403       .  A
C546        H551   1.081       .  S
C547        C548   1.407       .  A
C548        F552   1.358       .  S
C549        C554   1.412       .  A
C549        C558   1.408   1_565  A
C554        C555   1.396       .  A
C554        F559   1.357       .  S
C555        C556   1.399   1_565  A
C555        H560   1.084       .  S
C556        C557   1.402       .  A
C557        C558   1.396       .  A
C557        F561   1.358       .  S
C558        H562   1.082       .  S
