geometry optimzed in LAMMPS
_audit_creation_date              2020-11-30 
_audit_creation_method            'lammps2cif' 
_symmetry_space_group_name_H-M    'P1' 
_symmetry_Int_Tables_number       1 
_symmetry_cell_setting            triclinic 
loop_ 
_symmetry_equiv_pos_as_xyz 
  x,y,z 
_cell_length_a                    23.96450693 
_cell_length_b                    24.807174258957716 
_cell_length_c                    21.08926397534895 
_cell_angle_alpha                 89.77777186278983 
_cell_angle_beta                  91.72116058959156 
_cell_angle_gamma                 120.85585172278512 
loop_ 
_atom_site_label 
_atom_site_type_symbol 
_atom_site_fract_x 
_atom_site_fract_y 
_atom_site_fract_z 
_atom_site_charge 
N1          N  0.77776330  0.19991342  0.03760753    -0.04000
C2          C  0.71375044  0.15766083  0.37952893    -0.01400
C3          C  0.69080279  0.17757818  0.42837504    -0.24300
C4          C  0.75330762  0.26786527  0.07694340    -0.24500
C5          C  0.79995685  0.25135623  0.07662217    -0.01500
H6          H  0.64161286  0.15956798  0.44109204     0.12300
H7          H  0.75404653  0.30444868  0.10485615     0.12300
N8          N  0.29912648  0.46867537  0.35974469    -0.04000
C9          C  0.27314725  0.50565387  0.34577373    -0.01400
C10         C  0.31375373  0.56396413  0.37517483    -0.24300
C11         C  0.36096470  0.56813218  0.05109795    -0.24500
C12         C  0.34168376  0.50570866  0.05626488    -0.01500
H13         H  0.30910496  0.60498835  0.37430798     0.12300
H14         H  0.40285788  0.60737656  0.07454724     0.12300
N15         N  0.46295980  0.20777171  0.36309979    -0.04000
C16         C  0.51054024  0.17240956  0.06882198    -0.01400
C17         C  0.56814436  0.22528104  0.08906367    -0.24300
C18         C  0.51652496  0.28248134  0.43830172    -0.24500
C19         C  0.49065770  0.27122364  0.37686919    -0.01500
H20         H  0.60438072  0.22698366  0.12224603     0.12300
H21         H  0.54307513  0.32764723  0.46232434     0.12300
N22         N  0.25363895  0.71611805  0.35805346    -0.04000
C23         C  0.24464963  0.67270003  0.07489225    -0.01400
C24         C  0.30269151  0.68567803  0.10457172    -0.24300
C25         C  0.34303492  0.75263595  0.42032458    -0.24500
C26         C  0.31754453  0.76162579  0.36427182    -0.01500
H27         H  0.30847513  0.66043596  0.14373475     0.12300
H28         H  0.39198273  0.78141415  0.43938163     0.12300
N29         N  0.79266443  0.48824680  0.36129109    -0.04000
C30         C  0.82274060  0.45503197  0.34864583    -0.01400
C31         C  0.79570564  0.40124721  0.38395428    -0.24300
C32         C  0.75884984  0.43128592  0.11240162    -0.24500
C33         C  0.75239755  0.48108018  0.09109619    -0.01500
H34         H  0.80926430  0.36584044  0.38437741     0.12300
H35         H  0.73146638  0.39836533  0.14902431     0.12300
N36         N  0.55831369  0.73391940  0.05224785    -0.04000
C37         C  0.52308074  0.76357396  0.05125096    -0.01400
C38         C  0.47776317  0.73946870  0.00114704    -0.24300
C39         C  0.46525360  0.68929266  0.32439982    -0.24500
C40         C  0.52461399  0.69860639  0.34557706    -0.01500
H41         H  0.44492052  0.75506989  0.98603982     0.12300
H42         H  0.43235369  0.65459084  0.28971539     0.12300
O43         O  0.98204951  0.98338112  0.98052920    -0.88800
C44         C  0.90995699  0.87737413  0.16818575     0.87200
Mg45       Mg  0.04644462  0.08218712  0.97742736     1.58100
O46         O  0.01535758  0.85210052  0.92858458    -0.88600
O47         O  0.96184508  0.89795657  0.03024905    -0.75900
C48         C  0.28586703  0.09125966  0.15454120     0.92200
O49         O  0.97298584  0.03697539  0.15299109    -0.75700
O50         O  0.26983911  0.13072556  0.13837992    -0.83200
Mg51       Mg  0.91048016  0.97875272  0.23562443     1.58000
C52         C  0.16204380  0.83745185  0.87980975     0.92200
O53         O  0.83767429  0.88537032  0.99766806    -0.81500
H54         H  0.03386186  0.82591335  0.01262457    -0.06800
C55         C  0.09710654  0.95730655  0.11206384     0.87100
O56         O  0.13391322  0.07507956  0.00681143    -0.76000
O57         O  0.92731329  0.90397278  0.22034814    -0.88800
O58         O  0.10117497  0.81108929  0.86941394    -0.81600
C59         C  0.89557890  0.72358343  0.24095097     0.92300
C60         C  0.80808156  0.82832938  0.01361243     0.92100
Mg61       Mg  0.17478746  0.96754506  0.89613958     1.58000
O62         O  0.24441171  0.03326941  0.14559456    -0.81500
O63         O  0.11282587  0.89889607  0.97284362    -0.75700
O64         O  0.87731335  0.76211094  0.25263529    -0.81600
O65         O  0.89250537  0.05624008  0.25393658    -0.83300
O66         O  0.19293938  0.18967130  0.91475236    -0.81600
C67         C  0.05290426  0.85678296  0.97251838     0.86600
O68         O  0.15148895  0.03731160  0.92305935    -0.88700
O69         O  0.09584313  0.93449031  0.16410073    -0.88800
O70         O  0.12004366  0.01572776  0.10562208    -0.75900
Mg71       Mg  0.91998062  0.82222619  0.95384753     1.58000
O72         O  0.94762890  0.73995293  0.21201861    -0.83300
H73         H  0.99936599  0.98229843  0.07326505    -0.07000
O74         O  0.07319903  0.08661383  0.19089384    -0.88500
H75         H  0.05000422  0.10117625  0.10326895    -0.06800
H76         H  0.20819108  0.05843966  0.00140677    -0.07000
C77         C  0.03316003  0.07692089  0.14761290     0.86500
C78         C  0.98165928  0.95618005  0.02977191     0.87100
C79         C  0.16683417  0.05711418  0.97775316     0.87200
H80         H  0.07766239  0.92697800  0.07140555    -0.07000
O81         O  0.93879255  0.85173391  0.14454696    -0.76000
Mg82       Mg  0.16759626  0.10613929  0.16569163     1.58000
H83         H  0.87027856  0.87679549  0.14186122    -0.07000
C84         C  0.93064037  0.11504588  0.25933972     0.92200
O85         O  0.11490910  0.18301259  0.97547353    -0.83200
C86         C  0.17128839  0.21377725  0.95345322     0.92200
O87         O  0.82079900  0.78949379  0.98913380    -0.83200
Mg88       Mg  0.02186774  0.83888981  0.18165919     1.58200
O89         O  0.99220613  0.14104164  0.25883160    -0.81600
O90         O  0.20105496  0.89555651  0.87049084    -0.83200
C91         C  0.03150709  0.46052837  0.20163078    -0.03000
C92         C  0.50953030  0.95960485  0.20134306    -0.03000
C93         C  0.53770033  0.49433656  0.22085613    -0.03000
C94         C  0.73148574  0.84884650  0.06817662    -0.13800
C95         C  0.75347572  0.80748587  0.05577861     0.08300
C96         C  0.71485547  0.74433696  0.07201015    -0.13800
C97         C  0.65013529  0.72110189  0.08649675    -0.13800
C98         C  0.62320967  0.75964653  0.07925309     0.08300
C99         C  0.66621600  0.82496452  0.07828372    -0.13800
H100        H  0.76164014  0.89875220  0.05978738     0.12300
H101        H  0.73203940  0.71190089  0.06656275     0.12300
H102        H  0.61962555  0.67145218  0.09292342     0.12300
H103        H  0.64970900  0.85783421  0.07448766     0.12300
C104        C  0.53829559  0.87173751  0.06265076    -0.13800
C105        C  0.53363098  0.81879088  0.09190505     0.08300
C106        C  0.53456200  0.81844893  0.15865083    -0.13800
C107        C  0.53429021  0.86706416  0.19393980    -0.13800
C108        C  0.53161823  0.91755156  0.16418547     0.08300
C109        C  0.53828946  0.91992487  0.09753977    -0.13800
H110        H  0.54025919  0.87531054  0.01181069     0.12300
H111        H  0.53175755  0.77891553  0.18352410     0.12300
H112        H  0.53018580  0.86174997  0.24449611     0.12300
H113        H  0.54038871  0.95722849  0.07012913     0.12300
C114        C  0.56081857  0.65979405  0.25234331    -0.13800
C115        C  0.55223733  0.66036636  0.31823729     0.08300
C116        C  0.55394748  0.61276446  0.35346849    -0.13800
C117        C  0.55935196  0.56446651  0.32344043    -0.13800
C118        C  0.56054024  0.55943346  0.25680476     0.08300
C119        C  0.56596816  0.61131347  0.22268863    -0.13800
H120        H  0.55825746  0.69425320  0.22270238     0.12300
H121        H  0.50646075  0.58116388  0.05786202     0.12300
H122        H  0.55637188  0.52764462  0.35218007     0.12300
H123        H  0.56487874  0.60952639  0.17158632     0.12300
C124        C  0.90891040  0.65878184  0.96859960    -0.13800
C125        C  0.85959817  0.66136450  0.26920449     0.08300
C126        C  0.83888918  0.60670769  0.23348755    -0.13800
C127        C  0.81068848  0.54887372  0.26375582    -0.13800
C128        C  0.80741036  0.54547145  0.33029494     0.08300
C129        C  0.88291514  0.61459713  0.01599308    -0.13800
H130        H  0.96061723  0.69294044  0.97034095     0.12300
H131        H  0.84494572  0.60884430  0.18267139     0.12300
H132        H  0.79320041  0.50682186  0.23545987     0.12300
H133        H  0.91532886  0.61276652  0.05172053     0.12300
C134        C  0.70327390  0.54996774  0.12838146    -0.13800
C135        C  0.69855819  0.49163266  0.11547353     0.08300
C136        C  0.64075328  0.43830111  0.13404409    -0.13800
C137        C  0.58909053  0.44099577  0.15999026    -0.13800
C138        C  0.59325622  0.49783958  0.17717734     0.08300
C139        C  0.65265655  0.55306930  0.16049457    -0.13800
H140        H  0.69422955  0.53566077  0.37995328     0.12300
H141        H  0.63454760  0.39245444  0.12911450     0.12300
H142        H  0.54617130  0.39661331  0.17065018     0.12300
H143        H  0.66117101  0.59895589  0.17275046     0.12300
C144        C  0.94264352  0.49431756  0.33657903    -0.13800
C145        C  0.88093819  0.47367397  0.30816926     0.08300
C146        C  0.87290988  0.45769508  0.24347596    -0.13800
C147        C  0.92440384  0.46253349  0.20839741    -0.13800
C148        C  0.98456499  0.47672308  0.23766559     0.08300
C149        C  0.99306570  0.49508880  0.30255906    -0.13800
H150        H  0.95094322  0.50003844  0.06741290     0.12300
H151        H  0.82538900  0.43730092  0.22079983     0.12300
H152        H  0.91435767  0.44765512  0.15940724     0.12300
H153        H  0.03737400  0.50754308  0.32890125     0.12300
C154        C  0.20441377  0.72048015  0.25704487    -0.13800
C155        C  0.21560840  0.73013200  0.99510103     0.08300
C156        C  0.21088131  0.77946185  0.02090345    -0.13800
C157        C  0.19561894  0.81560944  0.98207707    -0.13800
C158        C  0.18437534  0.80250115  0.91697104     0.08300
C159        C  0.18826623  0.75764541  0.22018951    -0.13800
H160        H  0.21816809  0.69018126  0.23419628     0.12300
H161        H  0.22565086  0.79387771  0.06984014     0.12300
H162        H  0.19373478  0.85456711  0.00266552     0.12300
H163        H  0.18606293  0.75373837  0.16913628     0.12300
C164        C  0.12243544  0.50585357  0.12203136    -0.13800
C165        C  0.07229440  0.51067824  0.15012635     0.08300
C166        C  0.07351353  0.56804422  0.14097876    -0.13800
C167        C  0.12594868  0.61951047  0.11029151    -0.13800
C168        C  0.18002857  0.61618025  0.09118879     0.08300
C169        C  0.17663688  0.55829405  0.09758487    -0.13800
H170        H  0.12411230  0.46322856  0.12721499     0.12300
H171        H  0.03654015  0.57493605  0.16087388     0.12300
H172        H  0.12643997  0.66317964  0.10621160     0.12300
H173        H  0.21777389  0.55404804  0.08609571     0.12300
C174        C  0.38549075  0.87806819  0.33647262    -0.14400
C175        C  0.35449135  0.81441761  0.31801389     0.08300
C176        C  0.36148850  0.80133981  0.25500355    -0.13800
C177        C  0.40380190  0.84952793  0.21448394    -0.13800
C178        C  0.44492819  0.91236265  0.23656043     0.08300
C179        C  0.42917752  0.92626623  0.29607860    -0.13800
H180        H  0.37827848  0.89053832  0.38335302     0.12300
H181        H  0.33692801  0.75323241  0.23788787     0.12300
H182        H  0.40838733  0.83617726  0.16717203     0.12300
H183        H  0.45322567  0.97410761  0.31347101     0.12300
C184        C  0.35054670  0.07642021  0.91278716    -0.13800
C185        C  0.34113518  0.11319916  0.20056705     0.08300
C186        C  0.33179112  0.08193159  0.25812343    -0.13800
C187        C  0.37266621  0.11261219  0.31062703    -0.13800
C188        C  0.42644565  0.17398662  0.30617285     0.08300
C189        C  0.40144581  0.10065777  0.95886924    -0.13800
H190        H  0.33966343  0.03501426  0.88581125     0.12300
H191        H  0.28932915  0.03622940  0.26477141     0.12300
H192        H  0.35893723  0.08950211  0.35568254     0.12300
H193        H  0.43096500  0.07945621  0.96455244     0.12300
C194        C  0.44044854  0.05730332  0.11281650    -0.13800
C195        C  0.49831980  0.10741380  0.08814715     0.08300
C196        C  0.55367288  0.10160072  0.09475159    -0.13800
C197        C  0.55371826  0.05154414  0.12463567    -0.13800
C198        C  0.49834797  0.00319590  0.15334503     0.08300
C199        C  0.44045535  0.00606565  0.14514249    -0.13800
H200        H  0.39656223  0.05962524  0.11104096     0.12300
H201        H  0.60008816  0.13888723  0.08074987     0.12300
H202        H  0.59984890  0.05350407  0.13019013     0.12300
H203        H  0.39611745  0.97103816  0.16669758     0.12300
C204        C  0.57043582  0.43577061  0.30281133    -0.13800
C205        C  0.51992308  0.43774733  0.26843230     0.08300
C206        C  0.45745164  0.38183710  0.27054200    -0.13800
C207        C  0.44728639  0.32738289  0.30361910    -0.13800
C208        C  0.49907106  0.32565339  0.33536597     0.08300
C209        C  0.56042898  0.38152480  0.33486071    -0.13800
H210        H  0.61932367  0.47572144  0.30133310     0.12300
H211        H  0.41593061  0.37896105  0.24559825     0.12300
H212        H  0.39868645  0.28662862  0.30445679     0.12300
H213        H  0.54077323  0.36278548  0.06708046     0.12300
C214        C  0.22956886  0.36028481  0.05048375    -0.13800
C215        C  0.25991568  0.40608007  0.00461771     0.08300
C216        C  0.27504338  0.40140564  0.26604855    -0.13800
C217        C  0.25764794  0.34355597  0.23896412    -0.13800
C218        C  0.21030264  0.27985021  0.97295410     0.08300
C219        C  0.20448497  0.29733655  0.03473340    -0.13800
H220        H  0.22349893  0.37348466  0.09744488     0.12300
H221        H  0.28035674  0.43900143  0.23600973     0.12300
H222        H  0.24766181  0.33617394  0.18844332     0.12300
H223        H  0.17841793  0.26201765  0.07005984     0.12300
C224        C  0.38744266  0.50469764  0.16425968    -0.13800
C225        C  0.37624830  0.48374632  0.10097304     0.08300
C226        C  0.40806110  0.45277226  0.08050584    -0.13800
C227        C  0.45741519  0.45212849  0.11933176    -0.13800
C228        C  0.47431084  0.48012629  0.18066883     0.08300
C229        C  0.43196750  0.49907922  0.20427152    -0.13800
H230        H  0.36315763  0.52785490  0.18244337     0.12300
H231        H  0.43292893  0.45999856  0.35422880     0.12300
H232        H  0.48367618  0.43170904  0.10008476     0.12300
H233        H  0.43740588  0.51574377  0.25267429     0.12300
C234        C  0.19749960  0.53719894  0.29355493    -0.13800
C235        C  0.20886695  0.48847039  0.31000934     0.08300
C236        C  0.15660851  0.42649276  0.29586476    -0.13800
C237        C  0.09795298  0.41506065  0.26359527    -0.13800
C238        C  0.08717970  0.46486397  0.24840553     0.08300
C239        C  0.13774180  0.52560691  0.26797834    -0.13800
H240        H  0.22427924  0.59148974  0.96836507     0.12300
H241        H  0.16057519  0.38646750  0.30907972     0.12300
H242        H  0.06163026  0.36734094  0.25023402     0.12300
H243        H  0.13300113  0.56604325  0.25855522     0.12300
C244        C  0.80955762  0.16495952  0.28042837    -0.13800
C245        C  0.82472564  0.18594994  0.34392787     0.08300
C246        C  0.88171023  0.19333954  0.37309476    -0.13800
C247        C  0.92152647  0.17852572  0.34050654    -0.13800
C248        C  0.90301455  0.15210473  0.27955373     0.08300
C249        C  0.84757795  0.14642169  0.24889915    -0.13800
H250        H  0.76704251  0.16045656  0.25600282     0.12300
H251        H  0.76182040  0.09494035  0.08919136     0.12300
H252        H  0.96291668  0.18100689  0.36570209     0.12300
H253        H  0.83220101  0.12502159  0.20210404     0.12300
C254        C  0.87691047  0.29545079  0.17446758    -0.13800
C255        C  0.86720562  0.29134116  0.10795464     0.08300
C256        C  0.91920221  0.33572236  0.07246278    -0.13800
C257        C  0.97642009  0.38520050  0.10183408    -0.13800
C258        C  0.98452743  0.39353463  0.16892513     0.08300
C259        C  0.93526710  0.34386941  0.20420208    -0.13800
H260        H  0.83743427  0.26369359  0.20381219     0.12300
H261        H  0.91342206  0.33528233  0.02157572     0.12300
H262        H  0.01151419  0.41942846  0.07066894     0.12300
H263        H  0.93816547  0.34703666  0.25543866     0.12300
C264        C  0.61742909  0.11288353  0.30335868    -0.13800
C265        C  0.66765135  0.10699598  0.33146097     0.08300
C266        C  0.66670674  0.05060687  0.31801678    -0.13800
C267        C  0.61737239  0.00292400  0.27708549    -0.13800
C268        C  0.56431822  0.00766500  0.25143018     0.08300
C269        C  0.56554914  0.06372139  0.26850337    -0.13800
H270        H  0.61796942  0.15642515  0.30904437     0.12300
H271        H  0.72504908  0.08180236  0.95177962     0.12300
H272        H  0.62105317  0.96234494  0.26677913     0.12300
H273        H  0.52700704  0.07151221  0.25236322     0.12300
N274        N  0.78054203  0.19490411  0.38080719    -0.04000
C275        C  0.70810047  0.19630590  0.67946751    -0.01400
C276        C  0.69238851  0.23654456  0.70971904    -0.24300
C277        C  0.74280285  0.22638803  0.46002875    -0.24500
C278        C  0.79788669  0.23709073  0.43041656    -0.01500
H279        H  0.64884954  0.23888457  0.70381529     0.12300
H280        H  0.74039471  0.25206293  0.50021768     0.12300
N281        N  0.28766835  0.47321437  0.70223857    -0.04000
C282        C  0.26644682  0.51196569  0.67980736    -0.01400
C283        C  0.31310139  0.57272109  0.70004392    -0.24300
C284        C  0.36197813  0.56104373  0.40931600    -0.24500
C285        C  0.35259353  0.50222157  0.39896501    -0.01500
H286        H  0.31333849  0.61573093  0.69163620     0.12300
H287        H  0.39957571  0.59792797  0.43924430     0.12300
N288        N  0.46834470  0.19270648  0.70941328    -0.04000
C289        C  0.47165281  0.18048685  0.41684042    -0.01400
C290        C  0.50443320  0.22619935  0.46315464    -0.24300
C291        C  0.55302842  0.27243087  0.76214312    -0.24500
C292        C  0.50687822  0.25750853  0.71355229    -0.01500
H293        H  0.52097688  0.21982397  0.50936979     0.12300
H294        H  0.59117089  0.31832339  0.77797219     0.12300
N295        N  0.25045011  0.73455731  0.69558228    -0.04000
C296        C  0.23852645  0.67857769  0.40959152    -0.01400
C297        C  0.29378281  0.69934225  0.44794381    -0.24300
C298        C  0.34399953  0.75194640  0.73960130    -0.24500
C299        C  0.31648442  0.77235177  0.69436114    -0.01500
H300        H  0.29745383  0.67905625  0.49226091     0.12300
H301        H  0.39499411  0.77246573  0.75129930     0.12300
N302        N  0.79709876  0.51403130  0.69092951    -0.04000
C303        C  0.81988089  0.47605538  0.67245539    -0.01400
C304        C  0.78175780  0.41718478  0.69595519    -0.24300
C305        C  0.74888821  0.40148744  0.41986039    -0.24500
C306        C  0.74813292  0.45639338  0.40742991    -0.01500
H307        H  0.78835143  0.37794541  0.68814302     0.12300
H308        H  0.71889596  0.36475556  0.45235489     0.12300
N309        N  0.55355238  0.75007753  0.38611115    -0.04000
C310        C  0.51132861  0.77173785  0.39130596    -0.01400
C311        C  0.45739460  0.73512313  0.35208062    -0.24300
C312        C  0.47133916  0.68259586  0.63972067    -0.24500
C313        C  0.52595051  0.68495153  0.66605129    -0.01500
H314        H  0.41801486  0.74279380  0.34093695     0.12300
H315        H  0.44090676  0.65248182  0.60086525     0.12300
O316        O  0.99220680  0.01839255  0.29953795    -0.88800
C317        C  0.90984005  0.88416859  0.48672824     0.87200
Mg318      Mg  0.06529277  0.11107261  0.28574033     1.58100
O319        O  0.02346682  0.87305303  0.27385419    -0.88600
O320        O  0.97910202  0.94441950  0.36375384    -0.75900
C321        C  0.27068494  0.10794076  0.51816346     0.92200
O322        O  0.95353652  0.03559386  0.50677132    -0.75700
O323        O  0.25587171  0.14842294  0.50226413    -0.83200
Mg324      Mg  0.89326322  0.96041724  0.58023376     1.58000
C325        C  0.15761975  0.83925468  0.21591198     0.92200
O326        O  0.84058617  0.92484149  0.31386504    -0.81500
H327        H  0.04586370  0.85073426  0.35822145    -0.06800
C328        C  0.09878400  0.98066433  0.44269208     0.87100
O329        O  0.14324349  0.09142596  0.32564301    -0.76000
O330        O  0.91921792  0.89763920  0.54391838    -0.88800
O331        O  0.09710561  0.81770376  0.21297641    -0.81600
C332        C  0.90080556  0.72584966  0.53284832     0.92300
C333        C  0.81574390  0.87263873  0.34234373     0.92100
Mg334      Mg  0.18189553  0.97451494  0.22528158     1.58000
O335        O  0.23898267  0.05413155  0.49208491    -0.81500
O336        O  0.12378556  0.91544214  0.30968146    -0.75700
O337        O  0.87835967  0.76186653  0.53372851    -0.81600
O338        O  0.86386516  0.02450082  0.62113517    -0.83300
O339        O  0.21861063  0.19948244  0.22288354    -0.81600
C340        C  0.06315748  0.87765299  0.31533510     0.86600
O341        O  0.16647224  0.05074267  0.24678247    -0.88700
O342        O  0.09569371  0.94905763  0.48938735    -0.88800
O343        O  0.11536487  0.03815844  0.44714022    -0.75900
Mg344      Mg  0.93262736  0.85587100  0.30364295     1.58000
O345        O  0.95499597  0.74411984  0.50757385    -0.83300
H346        H  0.01184313  0.03371553  0.39200399    -0.07000
O347        O  0.05206949  0.08302647  0.54870240    -0.88500
H348        H  0.03020988  0.11203300  0.46821728    -0.06800
H349        H  0.21230750  0.06723692  0.33160601    -0.07000
C350        C  0.01302929  0.07893605  0.50666024     0.86500
C351        C  0.99390745  0.00027908  0.35342359     0.87100
C352        C  0.17616817  0.07000771  0.30214422     0.87200
H353        H  0.08689278  0.95931768  0.39678039    -0.07000
O354        O  0.94280695  0.86525641  0.45794707    -0.76000
Mg355      Mg  0.15004473  0.11396479  0.52444899     1.58000
H356        H  0.87292599  0.88860641  0.46088457    -0.07000
C357        C  0.89794205  0.08277928  0.63313046     0.92200
O358        O  0.14271731  0.20786509  0.27329806    -0.83200
C359        C  0.20040535  0.23030075  0.25579431     0.92200
O360        O  0.83859779  0.83681654  0.33850867    -0.83200
Mg361      Mg  0.02571573  0.84921130  0.49174265     1.58200
O362        O  0.95959471  0.11251356  0.63194707    -0.81600
O363        O  0.19938169  0.89562886  0.20260641    -0.83200
C364        C  0.02560443  0.46875180  0.53319412    -0.03000
C365        C  0.49797976  0.97692797  0.52507005    -0.03000
C366        C  0.54413972  0.47470049  0.55271795    -0.03000
C367        C  0.72090570  0.88181315  0.36638608    -0.13800
C368        C  0.75509522  0.85044085  0.37554922     0.08300
C369        C  0.72490675  0.79176022  0.40538336    -0.13800
C370        C  0.65859334  0.76096086  0.41671377    -0.13800
C371        C  0.62232350  0.78823511  0.39730026     0.08300
C372        C  0.65472630  0.85045920  0.37604470    -0.13800
H373        H  0.74321380  0.92755114  0.34454452     0.12300
H374        H  0.75093995  0.76734813  0.41466564     0.12300
H375        H  0.63471899  0.71388052  0.43523215     0.12300
H376        H  0.62820088  0.87255375  0.35963286     0.12300
C377        C  0.51514423  0.87608299  0.39198082    -0.13800
C378        C  0.52280099  0.83115829  0.42557274     0.08300
C379        C  0.53369317  0.84091003  0.49181864    -0.13800
C380        C  0.53176665  0.89100563  0.52276637    -0.13800
C381        C  0.51846684  0.93333162  0.48918373     0.08300
C382        C  0.51452679  0.92622435  0.42261874    -0.13800
H383        H  0.50684217  0.87107233  0.34138927     0.12300
H384        H  0.53997973  0.80782135  0.52020120     0.12300
H385        H  0.53685141  0.89456797  0.57377255     0.12300
H386        H  0.50772634  0.95753001  0.39315010     0.12300
C387        C  0.57665054  0.64628650  0.58388859    -0.13800
C388        C  0.54892933  0.64122060  0.64357598     0.08300
C389        C  0.53015888  0.58593549  0.67644937    -0.13800
C390        C  0.53532637  0.53663833  0.65013869    -0.13800
C391        C  0.56115857  0.53855794  0.58984628     0.08300
C392        C  0.58348260  0.59670720  0.55814950    -0.13800
H393        H  0.59012442  0.68740868  0.55550591     0.12300
H394        H  0.54572085  0.60973499  0.40389295     0.12300
H395        H  0.51041520  0.49370174  0.67458824     0.12300
H396        H  0.60122283  0.60253828  0.51083888     0.12300
C397        C  0.85101401  0.65752241  0.33512999    -0.13800
C398        C  0.87259581  0.67151445  0.57460956     0.08300
C399        C  0.80510084  0.63040944  0.57547321    -0.13800
C400        C  0.77881288  0.58123158  0.61871532    -0.13800
C401        C  0.81925911  0.57415656  0.66320191     0.08300
C402        C  0.82643933  0.60008017  0.36571941    -0.13800
H403        H  0.86730117  0.69967056  0.36346072     0.12300
H404        H  0.77317303  0.63502838  0.54130254     0.12300
H405        H  0.72765029  0.54635030  0.61471694     0.12300
H406        H  0.82475675  0.59857833  0.41698677     0.12300
C407        C  0.67953725  0.51126628  0.42438501    -0.13800
C408        C  0.70544363  0.47386716  0.44515611     0.08300
C409        C  0.68585809  0.44676136  0.50501449    -0.13800
C410        C  0.63800563  0.44958268  0.53862669    -0.13800
C411        C  0.60553638  0.48096993  0.51627891     0.08300
C412        C  0.63171593  0.51560420  0.45984422    -0.13800
H413        H  0.68480978  0.55341262  0.70783442     0.12300
H414        H  0.70685643  0.42138074  0.52680035     0.12300
H415        H  0.62768890  0.42550957  0.58296913     0.12300
H416        H  0.61341406  0.54410937  0.44116035     0.12300
C417        C  0.93696671  0.50498122  0.66575009    -0.13800
C418        C  0.87879481  0.49242144  0.63444093     0.08300
C419        C  0.87314676  0.48109263  0.56869019    -0.13800
C420        C  0.92256759  0.47880362  0.53608433    -0.13800
C421        C  0.97934615  0.48646667  0.56799530     0.08300
C422        C  0.98648383  0.50288849  0.63320445    -0.13800
H423        H  0.95074481  0.50620464  0.38654218     0.12300
H424        H  0.82867010  0.47013136  0.54307017     0.12300
H425        H  0.91404141  0.46631973  0.48625604     0.12300
H426        H  0.02900644  0.51167449  0.66062976     0.12300
C427        C  0.18280627  0.72594761  0.60370317    -0.13800
C428        C  0.20978147  0.72796513  0.32324654     0.08300
C429        C  0.19291796  0.76778586  0.35253339    -0.13800
C430        C  0.17748242  0.80481554  0.31613989    -0.13800
C431        C  0.17777114  0.80165650  0.25010267     0.08300
C432        C  0.16888860  0.76021811  0.56006391    -0.13800
H433        H  0.17879464  0.68241872  0.58885129     0.12300
H434        H  0.19915272  0.77538887  0.40343498     0.12300
H435        H  0.16722722  0.83742312  0.33960031     0.12300
H436        H  0.14846945  0.74060735  0.51372469     0.12300
C437        C  0.11477651  0.51125758  0.45265276    -0.13800
C438        C  0.06540112  0.51709991  0.48075422     0.08300
C439        C  0.06685134  0.57443321  0.47106069    -0.13800
C440        C  0.11962555  0.62537869  0.44095328    -0.13800
C441        C  0.17389637  0.62176180  0.42366904     0.08300
C442        C  0.16987251  0.56372711  0.42969660    -0.13800
H443        H  0.11574023  0.46827576  0.45787567     0.12300
H444        H  0.03013074  0.58205145  0.49027766     0.12300
H445        H  0.12007386  0.66884324  0.43597535     0.12300
H446        H  0.21106182  0.55938419  0.42013246     0.12300
C447        C  0.40056941  0.88751457  0.67586926    -0.14400
C448        C  0.35440852  0.82810012  0.65094345     0.08300
C449        C  0.34740673  0.82215138  0.58433033    -0.13800
C450        C  0.38886319  0.87234213  0.54458843    -0.13800
C451        C  0.44106807  0.92996482  0.56949446     0.08300
C452        C  0.44299482  0.93719492  0.63635675    -0.13800
H453        H  0.40512489  0.89502421  0.72663878     0.12300
H454        H  0.31174796  0.77763320  0.56275736     0.12300
H455        H  0.38315853  0.86447087  0.49387436     0.12300
H456        H  0.47868174  0.98040965  0.65946772     0.12300
C457        C  0.39715673  0.17280965  0.19424763    -0.13800
C458        C  0.31080129  0.11877708  0.57685427     0.08300
C459        C  0.32141985  0.16675528  0.61931611    -0.13800
C460        C  0.36737135  0.18472397  0.66885347    -0.13800
C461        C  0.40788970  0.15930474  0.67320714     0.08300
C462        C  0.44038071  0.20226473  0.24620465    -0.13800
H463        H  0.40572698  0.19780684  0.14999322     0.12300
H464        H  0.29617253  0.19222112  0.61290703     0.12300
H465        H  0.37620391  0.22338063  0.69956899     0.12300
H466        H  0.48287188  0.24816679  0.23997277     0.12300
C467        C  0.41389152  0.06791341  0.45988923    -0.13800
C468        C  0.46371106  0.11576748  0.42440926     0.08300
C469        C  0.51591462  0.10825278  0.41115024    -0.13800
C470        C  0.52210077  0.05876195  0.43692388    -0.13800
C471        C  0.47603785  0.01376911  0.47814375     0.08300
C472        C  0.41935235  0.01753901  0.48593173    -0.13800
H473        H  0.37206164  0.07156821  0.46961331     0.12300
H474        H  0.55503095  0.14511466  0.38563222     0.12300
H475        H  0.56648643  0.05874559  0.42949037     0.12300
H476        H  0.38171202  0.98521130  0.51676002     0.12300
C477        C  0.54949332  0.42197720  0.65816148    -0.13800
C478        C  0.52035166  0.41523499  0.59759928     0.08300
C479        C  0.48511367  0.35232511  0.57384890    -0.13800
C480        C  0.47966423  0.30076523  0.60962871    -0.13800
C481        C  0.50592988  0.30892530  0.67257622     0.08300
C482        C  0.53980928  0.37132111  0.69566972    -0.13800
H483        H  0.58443646  0.46787334  0.67484446     0.12300
H484        H  0.46539208  0.34338446  0.52566645     0.12300
H485        H  0.45715810  0.25526800  0.58652256     0.12300
H486        H  0.60168760  0.38306605  0.35908854     0.12300
C487        C  0.27387240  0.36027015  0.37077402    -0.13800
C488        C  0.28139154  0.40941267  0.33211821     0.08300
C489        C  0.27981072  0.39054949  0.63533537    -0.13800
C490        C  0.25283564  0.32752026  0.62023985    -0.13800
C491        C  0.24593882  0.29346673  0.27800757     0.08300
C492        C  0.25653833  0.30260775  0.34377010    -0.13800
H493        H  0.27838122  0.36568638  0.42190567     0.12300
H494        H  0.31485591  0.42568190  0.60501931     0.12300
H495        H  0.26610269  0.31443150  0.57673562     0.12300
H496        H  0.24554098  0.26348331  0.37452848     0.12300
C497        C  0.39070912  0.47830951  0.50055846    -0.13800
C498        C  0.39152849  0.47893748  0.43444330     0.08300
C499        C  0.43328668  0.46283226  0.40538448    -0.13800
C500        C  0.47904007  0.45463008  0.44231728    -0.13800
C501        C  0.48388999  0.46230047  0.50907515     0.08300
C502        C  0.43282365  0.46610612  0.53683163    -0.13800
H503        H  0.35863354  0.48980644  0.52421785     0.12300
H504        H  0.40306508  0.43904203  0.69971476     0.12300
H505        H  0.51123055  0.44372799  0.41840138     0.12300
H506        H  0.42914527  0.46590516  0.58762746     0.12300
C507        C  0.19032023  0.54416049  0.62809393    -0.13800
C508        C  0.20231907  0.49539081  0.64328202     0.08300
C509        C  0.15171201  0.43402789  0.62453412    -0.13800
C510        C  0.09334605  0.42314415  0.59223228    -0.13800
C511        C  0.08139288  0.47272785  0.57965946     0.08300
C512        C  0.13116164  0.53289675  0.60083270    -0.13800
H513        H  0.23461143  0.58581966  0.30140361     0.12300
H514        H  0.15678112  0.39389662  0.63296353     0.12300
H515        H  0.05867994  0.37594439  0.57590257     0.12300
H516        H  0.12582814  0.57301796  0.59215067     0.12300
C517        C  0.86425274  0.21313898  0.65893641    -0.13800
C518        C  0.80419546  0.18130909  0.68801907     0.08300
C519        C  0.77748162  0.11801635  0.70379662    -0.13800
C520        C  0.80718152  0.08533812  0.68427173    -0.13800
C521        C  0.86557710  0.11657925  0.65160044     0.08300
C522        C  0.89480507  0.18109005  0.64057529    -0.13800
H523        H  0.88684182  0.26243275  0.64928015     0.12300
H524        H  0.89356004  0.20644271  0.42260422     0.12300
H525        H  0.78489858  0.03592999  0.69512933     0.12300
H526        H  0.94067108  0.20646620  0.61693152     0.12300
C527        C  0.87943223  0.29872172  0.51862264    -0.13800
C528        C  0.86469446  0.28922968  0.45308683     0.08300
C529        C  0.91008421  0.33440400  0.41236161    -0.13800
C530        C  0.96585291  0.38937228  0.43695258    -0.13800
C531        C  0.97838316  0.40136954  0.50339534     0.08300
C532        C  0.93559388  0.35264971  0.54308721    -0.13800
H533        H  0.84507746  0.26534533  0.55121684     0.12300
H534        H  0.90022175  0.32933845  0.36167772     0.12300
H535        H  0.99654391  0.42386531  0.40330198     0.12300
H536        H  0.94306400  0.35917636  0.59380020     0.12300
C537        C  0.59631272  0.13179750  0.62405135    -0.13800
C538        C  0.65960360  0.14202648  0.63423167     0.08300
C539        C  0.67188825  0.09944202  0.60127538    -0.13800
C540        C  0.62144231  0.04561108  0.56788530    -0.13800
C541        C  0.55634185  0.03228264  0.56494192     0.08300
C542        C  0.54632313  0.07806250  0.59315267    -0.13800
H543        H  0.58312084  0.16446932  0.64126155     0.12300
H544        H  0.70410223  0.04334349  0.33895484     0.12300
H545        H  0.63429164  0.01546820  0.54345844     0.12300
H546        H  0.49872391  0.07284255  0.59033069     0.12300
N547        N  0.76995543  0.21298708  0.70099452    -0.04000
C548        C  0.71749365  0.18360504  0.01233543    -0.01400
C549        C  0.70416249  0.22840416  0.03470439    -0.24300
C550        C  0.74288953  0.27521100  0.75087737    -0.24500
C551        C  0.79133133  0.26204181  0.74345642    -0.01500
H552        H  0.66287029  0.23288458  0.02266464     0.12300
H553        H  0.74521554  0.31145080  0.78113978     0.12300
N554        N  0.28581463  0.47054940  0.02044887    -0.04000
C555        C  0.26761255  0.51034320  0.99436628    -0.01400
C556        C  0.31618069  0.57144916  0.01154604    -0.24300
C557        C  0.36084713  0.56984380  0.73562617    -0.24500
C558        C  0.34483743  0.50804612  0.73581621    -0.01500
H559        H  0.31914450  0.61509001  0.99932853     0.12300
H560        H  0.40268200  0.60892126  0.75932687     0.12300
N561        N  0.47876828  0.19160528  0.02657475    -0.04000
C562        C  0.49322489  0.16837714  0.75336415    -0.01400
C563        C  0.54443485  0.21762275  0.78658305    -0.24300
C564        C  0.57453178  0.27565721  0.05645275    -0.24500
C565        C  0.51885110  0.25576698  0.01946256    -0.01500
H566        H  0.57519015  0.21414281  0.82304443     0.12300
H567        H  0.61677044  0.32228371  0.05830802     0.12300
N568        N  0.25839679  0.71472021  0.02723976    -0.04000
C569        C  0.23561661  0.68947392  0.74023204    -0.01400
C570        C  0.29372594  0.69970597  0.76759926    -0.24300
C571        C  0.35220480  0.73760666  0.07568341    -0.24500
C572        C  0.32407070  0.75442506  0.02747863    -0.01500
H573        H  0.29921499  0.67199985  0.80431160     0.12300
H574        H  0.40304077  0.76071121  0.08916901     0.12300
N575        N  0.79777766  0.51093981  0.04512239    -0.04000
C576        C  0.83037702  0.47934038  0.03745732    -0.01400
C577        C  0.80788504  0.43127120  0.07979396    -0.24300
C578        C  0.73499436  0.41848298  0.73101707    -0.24500
C579        C  0.74445168  0.47862494  0.72830273    -0.01500
H580        H  0.82663967  0.40033509  0.08636670     0.12300
H581        H  0.69877155  0.37954087  0.75749426     0.12300
N582        N  0.55134582  0.72940965  0.71441885    -0.04000
C583        C  0.51241684  0.75513628  0.71757275    -0.01400
C584        C  0.46324069  0.72667646  0.67126134    -0.24300
C585        C  0.48385569  0.69342673  0.97156177    -0.24500
C586        C  0.53348283  0.69052134  0.00311320    -0.01500
H587        H  0.42639312  0.73818878  0.65958670     0.12300
H588        H  0.45583448  0.66578771  0.93039998     0.12300
O589        O  0.97296308  0.99130004  0.64557982    -0.88800
C590        C  0.91032178  0.86942747  0.82699346     0.87200
Mg591      Mg  0.03820780  0.08785691  0.64857712     1.58100
O592        O  0.01524354  0.86638408  0.58739742    -0.88600
O593        O  0.95701856  0.90594758  0.69182444    -0.75900
C594        C  0.27164498  0.09115118  0.84355679     0.92200
O595        O  0.95382524  0.02019363  0.84203207    -0.75700
O596        O  0.25491442  0.12972348  0.82519599    -0.83200
Mg597      Mg  0.89803505  0.94940910  0.92061672     1.58000
C598        C  0.16286700  0.85492795  0.53531022     0.92200
O599        O  0.82913419  0.89139546  0.65137496    -0.81500
H600        H  0.03127492  0.83431250  0.66894990    -0.06800
C601        C  0.09278698  0.95757682  0.78009035     0.87100
O602        O  0.12191950  0.07427906  0.67883346    -0.76000
O603        O  0.92020643  0.88423370  0.88391057    -0.88800
O604        O  0.10215501  0.82867653  0.52504488    -0.81600
C605        C  0.89682886  0.71123919  0.87575079     0.92300
C606        C  0.80275475  0.83486946  0.66876045     0.92100
Mg607      Mg  0.17426586  0.98154586  0.55937265     1.58000
O608        O  0.23828797  0.03488499  0.82351490    -0.81500
O609        O  0.11181455  0.90826869  0.63246694    -0.75700
O610        O  0.87643441  0.74885938  0.87615600    -0.81600
O611        O  0.87248777  0.01483767  0.96234994    -0.83300
O612        O  0.18829230  0.19580274  0.59635540    -0.81600
C613        C  0.05154309  0.86751052  0.63079771     0.86600
O614        O  0.14841716  0.04733119  0.59249677    -0.88700
O615        O  0.09456378  0.92945746  0.82774154    -0.88800
O616        O  0.10977275  0.01521637  0.78176011    -0.75900
Mg617      Mg  0.91920601  0.83379243  0.61235127     1.58000
O618        O  0.95112356  0.72759994  0.85160008    -0.83300
H619        H  0.98769919  0.98775016  0.73855810    -0.07000
O620        O  0.05480255  0.07137568  0.87787534    -0.88500
H621        H  0.02732524  0.09280560  0.79570290    -0.06800
H622        H  0.19636304  0.05772099  0.67498171    -0.07000
C623        C  0.01299869  0.06341729  0.83714484     0.86500
C624        C  0.97258020  0.96298584  0.69387992     0.87100
C625        C  0.15778796  0.05996129  0.64948431     0.87200
H626        H  0.07509351  0.93223114  0.73599762    -0.07000
O627        O  0.94239333  0.84880965  0.79929728    -0.76000
Mg628      Mg  0.15063917  0.09909887  0.85053027     1.58000
H629        H  0.87362949  0.87381108  0.80035327    -0.07000
C630        C  0.90635945  0.07378949  0.96788866     0.92200
O631        O  0.10769235  0.18744133  0.65381108    -0.83200
C632        C  0.16554287  0.21798859  0.63568048     0.92200
O633        O  0.81949338  0.79805422  0.64676249    -0.83200
Mg634      Mg  0.02424758  0.83133779  0.83414580     1.58200
O635        O  0.96688300  0.10423573  0.95893740    -0.81600
O636        O  0.20160610  0.91287869  0.52532187    -0.83200
C637        C  0.02259105  0.47497490  0.86698372    -0.03000
C638        C  0.50674111  0.95897480  0.86289662    -0.03000
C639        C  0.54168343  0.48035024  0.88655745    -0.03000
C640        C  0.72266806  0.85088492  0.72191590    -0.13800
C641        C  0.74763273  0.81185012  0.71040629     0.08300
C642        C  0.71235913  0.74886848  0.72859569    -0.13800
C643        C  0.64768900  0.72300420  0.74514249    -0.13800
C644        C  0.61765838  0.75879568  0.73786672     0.08300
C645        C  0.65752058  0.82432979  0.73384423    -0.13800
H646        H  0.75017377  0.90064019  0.71185368     0.12300
H647        H  0.73216940  0.71849734  0.72385737     0.12300
H648        H  0.61922917  0.67336413  0.75438241     0.12300
H649        H  0.63823050  0.85491957  0.72917667     0.12300
C650        C  0.52465024  0.86260491  0.72544096    -0.13800
C651        C  0.52371393  0.81200854  0.75652354     0.08300
C652        C  0.52993863  0.81608268  0.82333576    -0.13800
C653        C  0.53143511  0.86656625  0.85713962    -0.13800
C654        C  0.52648533  0.91511156  0.82591971     0.08300
C655        C  0.52767733  0.91317877  0.75889880    -0.13800
H656        H  0.52135654  0.86224080  0.67432247     0.12300
H657        H  0.53017360  0.77863831  0.84965555     0.12300
H658        H  0.53140330  0.86492815  0.90808590     0.12300
H659        H  0.52796283  0.94918272  0.73064614     0.12300
C660        C  0.58575663  0.65193002  0.92498568    -0.13800
C661        C  0.55468893  0.64536414  0.98255436     0.08300
C662        C  0.53272600  0.58895638  0.01467055    -0.13800
C663        C  0.53764323  0.53942516  0.98858645    -0.13800
C664        C  0.56413070  0.54231812  0.92850765     0.08300
C665        C  0.59119180  0.60207833  0.89911815    -0.13800
H666        H  0.60253840  0.69443535  0.89793609     0.12300
H667        H  0.50647386  0.57882021  0.72117961     0.12300
H668        H  0.50899690  0.49533284  0.01042841     0.12300
H669        H  0.61134440  0.60925821  0.85283363     0.12300
C670        C  0.91281234  0.66604801  0.62059308    -0.13800
C671        C  0.86849167  0.65927534  0.91970960     0.08300
C672        C  0.80098785  0.61752498  0.92090881    -0.13800
C673        C  0.77522945  0.57155736  0.96766117    -0.13800
C674        C  0.81670770  0.56840016  0.01362000     0.08300
C675        C  0.88618163  0.61835594  0.66513287    -0.13800
H676        H  0.96480993  0.69895652  0.62227652     0.12300
H677        H  0.76883558  0.61954630  0.88500613     0.12300
H678        H  0.72402032  0.53664789  0.96640281     0.12300
H679        H  0.91827385  0.61306031  0.69844642     0.12300
C680        C  0.67421603  0.52944216  0.75256813    -0.13800
C681        C  0.70647156  0.49731138  0.77138023     0.08300
C682        C  0.69180219  0.47023436  0.83175229    -0.13800
C683        C  0.64260169  0.46820621  0.86791704    -0.13800
C684        C  0.60204110  0.49111075  0.84578081     0.08300
C685        C  0.62192904  0.52502094  0.78819271    -0.13800
H686        H  0.74722739  0.59318108  0.11705320     0.12300
H687        H  0.71714140  0.44767792  0.85069276     0.12300
H688        H  0.63595699  0.44611614  0.91338416     0.12300
H689        H  0.59562881  0.54632784  0.76906270     0.12300
C690        C  0.94227669  0.49781093  0.01672954    -0.13800
C691        C  0.88466069  0.49286730  0.99229680     0.08300
C692        C  0.87673569  0.49111788  0.92554064    -0.13800
C693        C  0.92324144  0.49046300  0.88538844    -0.13800
C694        C  0.97953914  0.49119305  0.91021253     0.08300
C695        C  0.98825748  0.49710397  0.97727572    -0.13800
H696        H  0.94270739  0.51313401  0.71656299     0.12300
H697        H  0.83281756  0.48665908  0.90438381     0.12300
H698        H  0.91306757  0.48542308  0.83470012     0.12300
H699        H  0.02915824  0.49822449  0.00115487     0.12300
C700        C  0.20057156  0.71470625  0.93049273    -0.13800
C701        C  0.20884351  0.75157230  0.66394611     0.08300
C702        C  0.21634890  0.80930900  0.68170624    -0.13800
C703        C  0.20617382  0.84482847  0.63722027    -0.13800
C704        C  0.18414502  0.82114724  0.57564818     0.08300
C705        C  0.18534607  0.75126170  0.89145096    -0.13800
H706        H  0.20750474  0.67899419  0.90929775     0.12300
H707        H  0.23760011  0.82991864  0.72784677     0.12300
H708        H  0.21496694  0.89064726  0.65105167     0.12300
H709        H  0.17809841  0.74236931  0.84116854     0.12300
C710        C  0.11251241  0.52194669  0.78585304    -0.13800
C711        C  0.06308691  0.52659550  0.81595989     0.08300
C712        C  0.06367094  0.58362002  0.80655228    -0.13800
C713        C  0.11485252  0.63462498  0.77358371    -0.13800
C714        C  0.17018156  0.63256799  0.75570708     0.08300
C715        C  0.16696224  0.57481393  0.76231512    -0.13800
H716        H  0.11401700  0.47912923  0.78934525     0.12300
H717        H  0.02652491  0.59016513  0.82650847     0.12300
H718        H  0.11318753  0.67694988  0.76659687     0.12300
H719        H  0.20841129  0.57083306  0.75170444     0.12300
C720        C  0.40400440  0.87021906  0.01006472    -0.14400
C721        C  0.36085628  0.81023699  0.98453160     0.08300
C722        C  0.35643342  0.80379245  0.91797736    -0.13800
C723        C  0.39721521  0.85456926  0.87889067    -0.13800
C724        C  0.44733079  0.91268743  0.90470082     0.08300
C725        C  0.44610074  0.92035701  0.97115325    -0.13800
H726        H  0.40674346  0.87792071  0.06081364     0.12300
H727        H  0.32413197  0.75848209  0.89603057     0.12300
H728        H  0.39387674  0.84648173  0.82835913     0.12300
H729        H  0.47896887  0.96439528  0.99447070     0.12300
C730        C  0.34101100  0.08394698  0.59037170    -0.13800
C731        C  0.31716084  0.10824645  0.89906161     0.08300
C732        C  0.32848649  0.15841729  0.93866622    -0.13800
C733        C  0.37613800  0.17990997  0.98687985    -0.13800
C734        C  0.41681397  0.15491023  0.99374604     0.08300
C735        C  0.39134035  0.10559383  0.63682244    -0.13800
H736        H  0.32832787  0.04228851  0.56300224     0.12300
H737        H  0.30158069  0.18221821  0.93150419     0.12300
H738        H  0.38490262  0.21976824  0.01556530     0.12300
H739        H  0.41902042  0.08247872  0.64200071     0.12300
C740        C  0.42740101  0.05079947  0.78526710    -0.13800
C741        C  0.48311056  0.10276412  0.76019113     0.08300
C742        C  0.53911530  0.09828185  0.75887736    -0.13800
C743        C  0.54157254  0.04695685  0.78237634    -0.13800
C744        C  0.48949232  0.99832075  0.81503682     0.08300
C745        C  0.43066229  0.99971865  0.81338766    -0.13800
H746        H  0.38315770  0.05214847  0.78764420     0.12300
H747        H  0.58438555  0.13817427  0.74580635     0.12300
H748        H  0.58822132  0.04975127  0.78277620     0.12300
H749        H  0.38864215  0.96414490  0.83759415     0.12300
C750        C  0.54029857  0.41623001  0.98782412    -0.13800
C751        C  0.52004674  0.41666158  0.92424022     0.08300
C752        C  0.49350373  0.35758917  0.89142910    -0.13800
C753        C  0.48939736  0.30330105  0.92051026    -0.13800
C754        C  0.50772742  0.30452787  0.98509345     0.08300
C755        C  0.52858952  0.36095369  0.01778864    -0.13800
H756        H  0.57109127  0.45911805  0.01422771     0.12300
H757        H  0.48076798  0.35460266  0.84142895     0.12300
H758        H  0.47437122  0.26165551  0.89187242     0.12300
H759        H  0.56250788  0.38274797  0.74251600     0.12300
C760        C  0.21702323  0.36383330  0.73040061    -0.13800
C761        C  0.26036774  0.40857992  0.68889016     0.08300
C762        C  0.26785264  0.38910159  0.94369885    -0.13800
C763        C  0.24367528  0.32622751  0.92792055    -0.13800
C764        C  0.20526900  0.28231827  0.65874556     0.08300
C765        C  0.18902378  0.30055239  0.71512911    -0.13800
H766        H  0.20354549  0.37808937  0.77299044     0.12300
H767        H  0.29091868  0.42444459  0.90810170     0.12300
H768        H  0.24743705  0.31362012  0.87977158     0.12300
H769        H  0.15288458  0.26601414  0.74591304     0.12300
C770        C  0.39394804  0.49992354  0.83905523    -0.13800
C771        C  0.38249110  0.48481250  0.77454999     0.08300
C772        C  0.41325014  0.45462248  0.74869815    -0.13800
C773        C  0.46228562  0.44983520  0.78427563    -0.13800
C774        C  0.47934409  0.47182265  0.84767443     0.08300
C775        C  0.43688435  0.48891181  0.87538641    -0.13800
H776        H  0.36944052  0.52078937  0.86186269     0.12300
H777        H  0.39893586  0.43395763  0.03260368     0.12300
H778        H  0.48783413  0.43030365  0.76179707     0.12300
H779        H  0.43793993  0.49749186  0.92528469     0.12300
C780        C  0.18885724  0.54377467  0.95517046    -0.13800
C781        C  0.20190264  0.49469157  0.96267611     0.08300
C782        C  0.15046045  0.43406542  0.94287385    -0.13800
C783        C  0.09081263  0.42465368  0.91488780    -0.13800
C784        C  0.07889371  0.47493385  0.90876874     0.08300
C785        C  0.12884993  0.53366643  0.93274851    -0.13800
H786        H  0.22617719  0.59263244  0.63829653     0.12300
H787        H  0.15591587  0.39370467  0.94720894     0.12300
H788        H  0.05507493  0.37842729  0.89687178     0.12300
H789        H  0.12271974  0.57390868  0.92991023     0.12300
C790        C  0.86147032  0.19697521  0.97863436    -0.13800
C791        C  0.81362160  0.17080547  0.02403230     0.08300
C792        C  0.79862371  0.11471227  0.05365539    -0.13800
C793        C  0.82860743  0.08247013  0.03450465    -0.13800
C794        C  0.87508428  0.10758534  0.98729232     0.08300
C795        C  0.89274688  0.16570349  0.96059437    -0.13800
H796        H  0.87341567  0.24080509  0.95654784     0.12300
H797        H  0.73207906  0.09346506  0.72829722     0.12300
H798        H  0.81573587  0.03815972  0.05644338     0.12300
H799        H  0.92922790  0.18584079  0.92475733     0.12300
C800        C  0.87010901  0.30720232  0.83895732    -0.13800
C801        C  0.85877983  0.30403885  0.77270757     0.08300
C802        C  0.90667603  0.35296468  0.73719027    -0.13800
C803        C  0.96300051  0.40345437  0.76629343    -0.13800
C804        C  0.97291030  0.40992056  0.83312219     0.08300
C805        C  0.92647088  0.35839163  0.86835383    -0.13800
H806        H  0.83295553  0.27212215  0.86844809     0.12300
H807        H  0.89786918  0.35513207  0.68702509     0.12300
H808        H  0.99621854  0.43950111  0.73565781     0.12300
H809        H  0.93097536  0.36057409  0.91939940     0.12300
C810        C  0.60537692  0.11561774  0.95886186    -0.13800
C811        C  0.66793587  0.12508252  0.97205694     0.08300
C812        C  0.67801075  0.07722983  0.94791167    -0.13800
C813        C  0.62747020  0.02267391  0.91509560    -0.13800
C814        C  0.56388244  0.01250055  0.90617452     0.08300
C815        C  0.55489324  0.06052617  0.93046049    -0.13800
H816        H  0.59319210  0.15030288  0.97143773     0.12300
H817        H  0.72047446  0.10794325  0.59859530     0.12300
H818        H  0.63890825  0.98921379  0.89599436     0.12300
H819        H  0.50808726  0.05683158  0.92446789     0.12300
loop_ 
_geom_bond_atom_site_label_1 
_geom_bond_atom_site_label_2 
_geom_bond_distance 
_geom_bond_site_symmetry_2 
_ccdc_geom_bond_type 
N1            C5   1.369       .  A
N1          C548   1.375       .  A
N1          C791   1.412       .  S
C2          N274   1.377       .  A
C2            C3   1.387       .  A
C2          C265   1.532       .  S
C3          C277   1.369       .  A
C3            H6   1.067       .  S
C4            C5   1.374       .  A
C4          C549   1.378       .  A
C4            H7   1.076       .  S
C5          C255   1.523       .  S
N8            C9   1.374       .  A
N8          C285   1.366       .  A
N8          C488   1.426       .  S
C9           C10   1.397       .  A
C9          C235   1.544       .  S
C10         C284   1.376       .  A
C10          H13   1.079       .  S
C11          C12   1.375       .  A
C11         C556   1.375       .  A
C11          H14   1.082       .  S
C12         N554   1.368       .  A
C12         C225   1.511       .  S
N15          C19   1.387       .  A
N15         C289   1.382       .  A
N15         C188   1.450       .  S
C16         N561   1.389       .  A
C16          C17   1.386       .  A
C16         C195   1.539       .  S
C17         C564   1.364       .  A
C17          H20   1.082       .  S
C18          C19   1.385       .  A
C18         C290   1.377       .  A
C18          H21   1.082       .  S
C19         C208   1.534       .  S
N22          C26   1.361       .  A
N22         C296   1.360       .  A
N22         C428   1.414       .  S
C23         N568   1.365       .  A
C23          C24   1.386       .  A
C23         C168   1.511       .  S
C24         C571   1.381       .  A
C24          H27   1.082       .  S
C25          C26   1.384       .  A
C25         C297   1.384       .  A
C25          H28   1.078       .  S
C26         C175   1.518       .  S
N29          C30   1.375       .  A
N29         C306   1.379       .  A
N29         C128   1.435       .  S
C30          C31   1.374       .  A
C30         C145   1.515       .  S
C31         C305   1.375       .  A
C31          H34   1.082       .  S
C32          C33   1.393       .  A
C32         C577   1.379       .  A
C32          H35   1.082       .  S
C33         N575   1.379       .  A
C33         C135   1.544       .  S
N36          C37   1.375       .  A
N36         C586   1.379       .  A
N36          C98   1.443       .  S
C37          C38   1.387       .  A
C37         C105   1.522       .  S
C38         C585   1.377   1_554  A
C38          H41   1.080   1_554  S
C39          C40   1.379       .  A
C39         C311   1.378       .  A
C39          H42   1.082       .  S
C40         N309   1.381       .  A
C40         C115   1.530       .  S
O43         Mg45   2.126   1_665  S
O43        Mg597   2.115       .  S
O43          C78   1.234   1_556  S
C44          H83   1.080       .  S
C44          O57   1.231       .  S
C44          O81   1.267       .  A
Mg45        O620   2.146       .  S
Mg45         O85   2.178       .  S
Mg45         O56   2.260   1_556  S
Mg45        O635   2.261   1_455  S
O46         Mg71   2.095   1_455  S
O46        Mg634   2.103       .  S
O46          C67   1.235       .  S
O47          C78   1.268       .  A
O47         Mg71   2.264   1_554  S
C48         C185   1.477       .  S
C48          O50   1.264       .  A
C48          O62   1.272       .  A
O49          C77   1.272   1_655  A
O49         Mg51   2.299   1_545  S
O50         Mg82   2.293       .  S
Mg51         O57   2.118       .  S
Mg51        O316   2.120   1_565  S
Mg51         O65   2.212   1_565  S
Mg51        O326   2.273       .  S
C52         C158   1.448       .  S
C52          O90   1.272       .  A
C52          O58   1.268       .  A
O53          C60   1.265   1_556  A
O53        Mg597   2.241       .  S
H54          C67   1.082   1_554  S
C55          H80   1.068       .  S
C55          O69   1.227       .  S
C55          O70   1.268   1_565  A
O56          C79   1.260   1_554  A
O57        Mg344   2.157       .  S
O58        Mg634   2.251       .  S
C59         C125   1.463       .  S
C59          O72   1.272       .  A
C59          O64   1.266       .  A
C60          C95   1.464       .  S
C60          O87   1.266   1_554  A
Mg61         O68   2.156   1_565  S
Mg61        O615   2.156       .  S
Mg61         O63   2.291       .  S
Mg61         O90   2.249       .  S
Mg61        O608   2.228   1_565  S
O62        Mg334   2.255   1_545  S
O63          C67   1.270       .  A
O64        Mg344   2.257       .  S
O65          C84   1.266       .  A
O66          C86   1.281       .  A
O66        Mg628   2.348       .  S
O68        Mg628   2.168       .  S
O68          C79   1.225       .  S
O69         Mg88   2.150       .  S
O69        Mg334   2.157       .  S
O70         Mg82   2.291       .  S
Mg71        O603   2.125       .  S
Mg71         O87   2.233       .  S
Mg71        O610   2.249       .  S
O72         Mg88   2.275   1_655  S
H73          C78   1.068       .  S
O74         Mg82   2.140       .  S
O74        Mg318   2.134       .  S
O74          C77   1.235       .  S
H75          C77   1.081       .  S
H76          C79   1.081   1_554  S
O81         Mg88   2.288   1_655  S
Mg82        O341   2.182       .  S
Mg82        O339   2.311       .  S
C84         C248   1.452       .  S
C84          O89   1.272       .  A
O85          C86   1.265       .  A
C86         C218   1.463       .  S
Mg88        O319   2.115       .  S
Mg88        O331   2.205       .  S
O89        Mg318   2.284   1_655  S
C91         C148   1.588   1_455  S
C91         C165   1.578       .  S
C91         C238   1.593       .  S
C91         C258   1.596   1_455  S
C92         C108   1.606       .  S
C92         C178   1.588       .  S
C92         C198   1.593   1_565  S
C92         C268   1.607   1_565  S
C93         C118   1.600       .  S
C93         C138   1.607       .  S
C93         C205   1.600       .  S
C93         C228   1.589       .  S
C94          C95   1.401       .  A
C94          C99   1.383       .  A
C94         H100   1.084       .  S
C95          C96   1.398       .  A
C96          C97   1.393       .  A
C96         H101   1.083       .  S
C97          C98   1.407       .  A
C97         H102   1.073       .  S
C98          C99   1.406       .  A
C99         H103   1.075       .  S
C104        C105   1.402       .  A
C104        C109   1.406       .  A
C104        H110   1.076       .  S
C105        C106   1.407       .  A
C106        C107   1.423       .  A
C106        H111   1.083       .  S
C107        C108   1.428       .  A
C107        H112   1.075       .  S
C108        C109   1.417       .  A
C109        H113   1.069       .  S
C114        C115   1.412       .  A
C114        C119   1.420       .  A
C114        H120   1.083       .  S
C115        C116   1.410       .  A
C116        C117   1.422       .  A
C116        H394   1.083       .  S
C117        C118   1.414       .  A
C117        H122   1.067       .  S
C118        C119   1.420       .  A
C119        H123   1.078       .  S
H121        C662   1.082       .  S
C124        C129   1.385   1_556  A
C124        C671   1.398       .  A
C124        H130   1.084       .  S
C125        C126   1.395       .  A
C125        C397   1.407       .  A
C126        C127   1.395       .  A
C126        H131   1.083       .  S
C127        C128   1.408       .  A
C127        H132   1.078       .  S
C128        C402   1.398       .  A
C129        C674   1.401       .  A
C129        H133   1.083       .  S
C134        C135   1.419       .  A
C134        C139   1.443       .  A
C134        H686   1.082       .  S
C135        C136   1.404       .  A
C136        C137   1.401       .  A
C136        H141   1.074       .  S
C137        C138   1.410       .  A
C137        H142   1.082       .  S
C138        C139   1.433       .  A
C139        H143   1.079       .  S
H140        C407   1.079       .  S
C144        C145   1.407       .  A
C144        C149   1.415       .  A
C144        H423   1.080       .  S
C145        C146   1.402       .  A
C146        C147   1.410       .  A
C146        H151   1.077       .  S
C147        C148   1.418       .  A
C147        H152   1.076       .  S
C148        C149   1.419       .  A
C149        H153   1.077   1_655  S
H150        C690   1.079       .  S
C154        C159   1.395       .  A
C154        C428   1.402       .  A
C154        H160   1.083       .  S
C155        N568   1.420   1_556  S
C155        C156   1.399   1_556  A
C155        C700   1.402       .  A
C156        C157   1.386   1_554  A
C156        H161   1.081       .  S
C157        C158   1.398       .  A
C157        H162   1.083   1_556  S
C158        C705   1.394       .  A
C159        C431   1.396       .  A
C159        H163   1.079       .  S
C164        C165   1.414       .  A
C164        C169   1.395       .  A
C164        H170   1.084       .  S
C165        C166   1.421       .  A
C166        C167   1.423       .  A
C166        H171   1.081       .  S
C167        C168   1.411       .  A
C167        H172   1.080       .  S
C168        C169   1.402       .  A
C169        H173   1.078       .  S
C174        C175   1.407       .  A
C174        C179   1.419       .  A
C174        H180   1.082       .  S
C175        C176   1.404       .  A
C176        C177   1.410       .  A
C176        H181   1.082       .  S
C177        C178   1.421       .  A
C177        H182   1.079       .  S
C178        C179   1.415       .  A
C179        H183   1.079       .  S
C184        C189   1.405       .  A
C184        C731   1.407       .  A
C184        H190   1.081       .  S
C185        C186   1.399       .  A
C185        C457   1.407       .  A
C186        C187   1.393       .  A
C186        H191   1.079       .  S
C187        C188   1.408       .  A
C187        H192   1.077       .  S
C188        C462   1.408       .  A
C189        C734   1.404       .  A
C189        H193   1.081       .  S
C194        C195   1.417       .  A
C194        C199   1.440       .  A
C194        H200   1.082       .  S
C195        C196   1.409       .  A
C196        C197   1.391       .  A
C196        H201   1.069       .  S
C197        C198   1.406       .  A
C197        H202   1.084       .  S
C198        C199   1.431       .  A
C199        H203   1.081   1_545  S
C204        C205   1.415       .  A
C204        C209   1.413       .  A
C204        H210   1.080       .  S
C205        C206   1.428       .  A
C206        C207   1.427       .  A
C206        H211   1.081       .  S
C207        C208   1.412       .  A
C207        H212   1.083       .  S
C208        C209   1.412       .  A
C209        H486   1.082       .  S
H213        C755   1.066       .  S
C214        C215   1.393       .  A
C214        C219   1.393       .  A
C214        H220   1.081       .  S
C215        N554   1.424       .  S
C215        C762   1.402   1_554  A
C216        C217   1.392       .  A
C216        C488   1.401       .  A
C216        H221   1.080       .  S
C217        C491   1.396       .  A
C217        H222   1.080       .  S
C218        C219   1.408   1_556  A
C218        C763   1.399       .  A
C219        H223   1.084       .  S
C224        C225   1.402       .  A
C224        C229   1.403       .  A
C224        H230   1.083       .  S
C225        C226   1.408       .  A
C226        C227   1.425       .  A
C226        H777   1.083       .  S
C227        C228   1.417       .  A
C227        H232   1.078       .  S
C228        C229   1.421       .  A
C229        H233   1.082       .  S
H231        C499   1.081       .  S
C234        C235   1.409       .  A
C234        C239   1.399       .  A
C234        H513   1.080       .  S
C235        C236   1.424       .  A
C236        C237   1.433       .  A
C236        H241   1.080       .  S
C237        C238   1.419       .  A
C237        H242   1.081       .  S
C238        C239   1.418       .  A
C239        H243   1.083       .  S
H240        C780   1.076       .  S
C244        C245   1.407       .  A
C244        C249   1.397       .  A
C244        H250   1.081       .  S
C245        N274   1.438       .  S
C245        C246   1.404       .  A
C246        C247   1.385       .  A
C246        H524   1.080       .  S
C247        C248   1.397       .  A
C247        H252   1.084       .  S
C248        C249   1.400       .  A
C249        H253   1.083       .  S
H251        C792   1.083       .  S
C254        C255   1.410       .  A
C254        C259   1.422       .  A
C254        H260   1.080       .  S
C255        C256   1.403       .  A
C256        C257   1.414       .  A
C256        H261   1.077       .  S
C257        C258   1.424       .  A
C257        H262   1.075   1_655  S
C258        C259   1.421       .  A
C259        H263   1.081       .  S
C264        C265   1.399       .  A
C264        C269   1.404       .  A
C264        H270   1.081       .  S
C265        C266   1.417       .  A
C266        C267   1.433       .  A
C266        H544   1.082       .  S
C267        C268   1.426       .  A
C267        H272   1.078   1_545  S
C268        C269   1.423       .  A
C269        H273   1.082       .  S
H271        C812   1.074       .  S
N274        C278   1.378       .  A
C275        N547   1.381       .  A
C275        C276   1.396       .  A
C275        C538   1.553       .  S
C276        C550   1.375       .  A
C276        H279   1.078       .  S
C277        C278   1.375       .  A
C277        H280   1.083       .  S
C278        C528   1.516       .  S
N281        C558   1.363       .  A
N281        C282   1.375       .  A
N281        C761   1.412       .  S
C282        C283   1.397       .  A
C282        C508   1.552       .  S
C283        C557   1.382       .  A
C283        H286   1.078       .  S
C284        C285   1.375       .  A
C284        H287   1.083       .  S
C285        C498   1.507       .  S
N288        C292   1.385       .  A
N288        C562   1.382       .  A
N288        C461   1.441       .  S
C289        C290   1.381       .  A
C289        C468   1.525       .  S
C290        H293   1.083       .  S
C291        C563   1.368       .  A
C291        C292   1.388       .  A
C291        H294   1.077       .  S
C292        C481   1.547       .  S
N295        C299   1.365       .  A
N295        C569   1.367       .  A
N295        C701   1.417       .  S
C296        C297   1.383       .  A
C296        C441   1.503       .  S
C297        H300   1.082       .  S
C298        C570   1.384       .  A
C298        C299   1.379       .  A
C298        H301   1.076       .  S
C299        C448   1.526       .  S
N302        C579   1.379       .  A
N302        C303   1.371       .  A
N302        C401   1.431       .  S
C303        C304   1.366       .  A
C303        C418   1.509       .  S
C304        C578   1.375       .  A
C304        H307   1.077       .  S
C305        C306   1.395       .  A
C305        H308   1.081       .  S
C306        C408   1.541       .  S
N309        C310   1.375       .  A
N309        C371   1.430       .  S
C310        C311   1.385       .  A
C310        C378   1.533       .  S
C311        H314   1.074       .  S
C312        C584   1.381       .  A
C312        C313   1.379       .  A
C312        H315   1.082       .  S
C313        N582   1.382       .  A
C313        C388   1.529       .  S
O316       Mg318   2.082   1_655  S
O316        C351   1.228       .  S
C317        H356   1.078       .  S
C317        O330   1.236       .  S
C317        O354   1.274       .  A
Mg318       O358   2.175       .  S
Mg318       O329   2.296       .  S
O319       Mg344   2.108   1_455  S
O319        C340   1.234       .  S
O320        C351   1.262   1_565  A
O320       Mg344   2.258       .  S
C321        C458   1.481       .  S
C321        O323   1.266       .  A
C321        O335   1.266       .  A
O322        C350   1.271   1_655  A
O322       Mg324   2.305   1_545  S
O323       Mg355   2.286       .  S
Mg324       O589   2.117       .  S
Mg324       O330   2.105       .  S
Mg324       O338   2.228   1_565  S
Mg324       O599   2.228       .  S
C325        C431   1.435       .  S
C325        O363   1.271       .  A
C325        O331   1.262       .  A
O326        C333   1.272       .  A
H327        C340   1.082       .  S
C328        H353   1.064       .  S
C328        O342   1.236       .  S
C328        O343   1.272   1_565  A
O329        C352   1.267       .  A
O330       Mg617   2.139       .  S
C332        C398   1.463       .  S
C332        O345   1.270       .  A
C332        O337   1.258       .  A
C333        C368   1.464       .  S
C333        O360   1.264       .  A
Mg334       O341   2.157   1_565  S
Mg334       O336   2.300       .  S
Mg334       O363   2.257       .  S
O335       Mg607   2.216   1_545  S
O336        C340   1.271       .  A
O337       Mg617   2.242       .  S
O338        C357   1.265       .  A
O339        C359   1.273       .  A
O341        C352   1.233       .  S
O342       Mg607   2.158       .  S
O342       Mg361   2.166       .  S
O343       Mg355   2.286       .  S
Mg344       O360   2.201       .  S
O345       Mg361   2.297   1_655  S
H346        C351   1.074   1_455  S
O347       Mg591   2.155       .  S
O347       Mg355   2.141       .  S
O347        C350   1.235       .  S
H348        C350   1.081       .  S
H349        C352   1.081       .  S
O354       Mg361   2.310   1_655  S
Mg355       O614   2.171       .  S
Mg355       O612   2.301       .  S
C357        C521   1.464       .  S
C357        O362   1.270       .  A
O358        C359   1.264       .  A
C359        C491   1.445       .  S
Mg361       O592   2.112       .  S
Mg361       O604   2.233       .  S
O362       Mg591   2.277   1_655  S
C364        C421   1.585   1_455  S
C364        C438   1.566       .  S
C364        C511   1.595       .  S
C364        C531   1.579   1_455  S
C365        C381   1.599       .  S
C365        C451   1.592       .  S
C365        C471   1.596   1_565  S
C365        C541   1.587   1_565  S
C366        C391   1.618       .  S
C366        C411   1.616       .  S
C366        C478   1.599       .  S
C366        C501   1.579       .  S
C367        C368   1.399       .  A
C367        C372   1.384       .  A
C367        H373   1.083       .  S
C368        C369   1.407       .  A
C369        C370   1.394       .  A
C369        H374   1.083       .  S
C370        C371   1.400       .  A
C370        H375   1.081       .  S
C371        C372   1.405       .  A
C372        H376   1.080       .  S
C377        C378   1.405       .  A
C377        C382   1.411       .  A
C377        H383   1.075       .  S
C378        C379   1.412       .  A
C379        C380   1.428       .  A
C379        H384   1.083       .  S
C380        C381   1.425       .  A
C380        H385   1.078       .  S
C381        C382   1.410       .  A
C382        H386   1.066       .  S
C387        C388   1.416       .  A
C387        C392   1.432       .  A
C387        H393   1.083       .  S
C388        C389   1.394       .  A
C389        C390   1.408       .  A
C389        H667   1.082       .  S
C390        C391   1.421       .  A
C390        H395   1.058       .  S
C391        C392   1.427       .  A
C392        H396   1.076       .  S
C397        C402   1.396       .  A
C397        H403   1.084       .  S
C398        C670   1.402       .  A
C398        C399   1.402       .  A
C399        C400   1.398       .  A
C399        H404   1.084       .  S
C400        C401   1.403       .  A
C400        H405   1.079       .  S
C401        C675   1.403       .  A
C402        H406   1.083       .  S
C407        C408   1.418       .  A
C407        C412   1.436       .  A
C408        C409   1.404       .  A
C409        C410   1.398       .  A
C409        H414   1.081       .  S
C410        C411   1.425       .  A
C410        H415   1.073       .  S
C411        C412   1.426       .  A
C412        H416   1.074       .  S
H413        C680   1.079       .  S
C417        C418   1.406       .  A
C417        C422   1.412       .  A
C417        H696   1.083       .  S
C418        C419   1.405       .  A
C419        C420   1.413       .  A
C419        H424   1.082       .  S
C420        C421   1.422       .  A
C420        H425   1.080       .  S
C421        C422   1.416       .  A
C422        H426   1.076   1_655  S
C427        C701   1.400       .  A
C427        C432   1.395       .  A
C427        H433   1.081       .  S
C428        C429   1.396       .  A
C429        C430   1.377       .  A
C429        H434   1.083       .  S
C430        C431   1.396       .  A
C430        H435   1.083       .  S
C432        C704   1.399       .  A
C432        H436   1.078       .  S
C437        C438   1.411       .  A
C437        C442   1.394       .  A
C437        H443   1.083       .  S
C438        C439   1.419       .  A
C439        C440   1.415       .  A
C439        H444   1.080       .  S
C440        C441   1.407       .  A
C440        H445   1.078       .  S
C441        C442   1.398       .  A
C442        H446   1.071       .  S
C447        C448   1.404       .  A
C447        C452   1.416       .  A
C447        H453   1.080       .  S
C448        C449   1.409       .  A
C449        C450   1.419       .  A
C449        H454   1.081       .  S
C450        C451   1.420       .  A
C450        H455   1.080       .  S
C451        C452   1.419       .  A
C452        H456   1.076       .  S
C457        C462   1.403       .  A
C457        H463   1.084       .  S
C458        C730   1.407       .  A
C458        C459   1.403       .  A
C459        C460   1.391       .  A
C459        H464   1.082       .  S
C460        C461   1.404       .  A
C460        H465   1.083       .  S
C461        C735   1.403       .  A
C462        H466   1.081       .  S
C467        C468   1.410       .  A
C467        C472   1.428       .  A
C467        H473   1.077       .  S
C468        C469   1.392       .  A
C469        C470   1.415       .  A
C469        H474   1.073       .  S
C470        C471   1.416       .  A
C470        H475   1.080       .  S
C471        C472   1.423       .  A
C472        H476   1.081   1_545  S
C477        C478   1.405       .  A
C477        C482   1.401       .  A
C477        H483   1.062       .  S
C478        C479   1.424       .  A
C479        C480   1.432       .  A
C479        H484   1.082       .  S
C480        C481   1.422       .  A
C480        H485   1.080       .  S
C481        C482   1.409       .  A
C482        H759   1.079       .  S
C487        C488   1.400       .  A
C487        C492   1.388       .  A
C487        H493   1.082       .  S
C489        C761   1.394       .  A
C489        C490   1.385       .  A
C489        H494   1.073       .  S
C490        C764   1.398       .  A
C490        H495   1.084       .  S
C491        C492   1.401       .  A
C492        H496   1.084       .  S
C497        C498   1.395       .  A
C497        C502   1.400       .  A
C497        H503   1.082       .  S
C498        C499   1.409       .  A
C499        C500   1.424       .  A
C500        C501   1.415       .  A
C500        H505   1.078       .  S
C501        C502   1.418       .  A
C502        H506   1.077       .  S
H504        C772   1.080       .  S
C507        C508   1.413       .  A
C507        C512   1.402       .  A
C507        H786   1.078       .  S
C508        C509   1.424       .  A
C509        C510   1.432       .  A
C509        H514   1.076       .  S
C510        C511   1.421       .  A
C510        H515   1.081       .  S
C511        C512   1.413       .  A
C512        H516   1.081       .  S
C517        C518   1.398       .  A
C517        C522   1.391       .  A
C517        H523   1.075       .  S
C518        N547   1.429       .  S
C518        C519   1.401       .  A
C519        C520   1.395       .  A
C519        H797   1.083       .  S
C520        C521   1.405       .  A
C520        H525   1.083       .  S
C521        C522   1.401       .  A
C522        H526   1.083       .  S
C527        C528   1.407       .  A
C527        C532   1.409       .  A
C527        H533   1.080       .  S
C528        C529   1.405       .  A
C529        C530   1.417       .  A
C529        H534   1.081       .  S
C530        C531   1.424       .  A
C530        H535   1.076       .  S
C531        C532   1.409       .  A
C532        H536   1.078       .  S
C537        C538   1.413       .  A
C537        C542   1.399       .  A
C537        H543   1.077       .  S
C538        C539   1.422       .  A
C539        C540   1.429       .  A
C539        H817   1.075       .  S
C540        C541   1.419       .  A
C540        H545   1.081       .  S
C541        C542   1.412       .  A
C542        H546   1.080       .  S
N547        C551   1.374       .  A
C548        C549   1.392       .  A
C548        C811   1.556   1_554  S
C549        H552   1.074       .  S
C550        C551   1.371       .  A
C550        H553   1.081       .  S
C551        C801   1.515       .  S
N554        C555   1.375   1_554  A
C555        C556   1.397   1_556  A
C555        C781   1.546       .  S
C556        H559   1.079   1_554  S
C557        C558   1.376       .  A
C557        H560   1.082       .  S
C558        C771   1.516       .  S
N561        C565   1.385       .  A
N561        C734   1.438   1_554  S
C562        C563   1.381       .  A
C562        C741   1.525       .  S
C563        H566   1.083       .  S
C564        C565   1.378       .  A
C564        H567   1.078       .  S
C565        C754   1.540   1_554  S
N568        C572   1.363       .  A
C569        C570   1.388       .  A
C569        C714   1.521       .  S
C570        H573   1.082       .  S
C571        C572   1.381       .  A
C571        H574   1.076       .  S
C572        C721   1.517   1_554  S
N575        C576   1.374       .  A
N575        C674   1.424       .  S
C576        C577   1.368       .  A
C576        C691   1.528   1_554  S
C577        H580   1.077       .  S
C578        C579   1.391       .  A
C578        H581   1.079       .  S
C579        C681   1.534       .  S
N582        C583   1.377       .  A
N582        C644   1.438       .  S
C583        C584   1.387       .  A
C583        C651   1.530       .  S
C584        H587   1.080       .  S
C585        C586   1.379   1_556  A
C585        H588   1.083       .  S
C586        C661   1.517   1_554  S
O589       Mg591   2.083   1_665  S
O589        C624   1.233       .  S
C590        H629   1.081       .  S
C590        O603   1.236       .  S
C590        O627   1.275       .  A
Mg591       O631   2.159       .  S
Mg591       O602   2.271       .  S
O592       Mg617   2.095   1_455  S
O592        C613   1.234       .  S
O593        C624   1.265       .  A
O593       Mg617   2.259       .  S
C594        C731   1.481       .  S
C594        O596   1.268       .  A
C594        O608   1.267       .  A
O595        C623   1.273   1_655  A
O595       Mg597   2.306   1_545  S
O596       Mg628   2.288       .  S
Mg597       O603   2.100       .  S
Mg597       O611   2.202   1_565  S
C598        C704   1.447       .  S
C598        O636   1.270       .  A
C598        O604   1.264       .  A
O599        C606   1.265       .  A
H600        C613   1.081       .  S
C601        H626   1.071       .  S
C601        O615   1.233       .  S
C601        O616   1.270   1_565  A
O602        C625   1.263       .  A
C605        C671   1.454       .  S
C605        O618   1.270       .  A
C605        O610   1.256       .  A
C606        C641   1.461       .  S
C606        O633   1.265       .  A
Mg607       O614   2.146   1_565  S
Mg607       O609   2.291       .  S
Mg607       O636   2.243       .  S
O609        C613   1.268       .  A
O611        C630   1.261       .  A
O612        C632   1.275       .  A
O614        C625   1.228       .  S
O615       Mg634   2.142       .  S
O616       Mg628   2.289       .  S
Mg617       O633   2.225       .  S
O618       Mg634   2.288   1_655  S
H619        C624   1.073       .  S
O620       Mg628   2.130       .  S
O620        C623   1.236       .  S
H621        C623   1.081       .  S
H622        C625   1.081       .  S
O627       Mg634   2.315   1_655  S
C630        C794   1.448       .  S
C630        O635   1.265       .  A
O631        C632   1.263       .  A
C632        C764   1.452       .  S
C637        C694   1.595   1_455  S
C637        C711   1.586       .  S
C637        C784   1.590       .  S
C637        C804   1.587   1_455  S
C638        C654   1.604       .  S
C638        C724   1.585       .  S
C638        C744   1.589       .  S
C638        C814   1.594   1_565  S
C639        C664   1.603       .  S
C639        C684   1.606       .  S
C639        C751   1.604       .  S
C639        C774   1.598       .  S
C640        C641   1.400       .  A
C640        C645   1.379       .  A
C640        H646   1.084       .  S
C641        C642   1.401       .  A
C642        C643   1.395       .  A
C642        H647   1.083       .  S
C643        C644   1.406       .  A
C643        H648   1.079       .  S
C644        C645   1.405       .  A
C645        H649   1.075       .  S
C650        C651   1.404       .  A
C650        C655   1.410       .  A
C650        H656   1.078       .  S
C651        C652   1.411       .  A
C652        C653   1.427       .  A
C652        H657   1.083       .  S
C653        C654   1.426       .  A
C653        H658   1.075       .  S
C654        C655   1.416       .  A
C655        H659   1.069       .  S
C660        C661   1.408       .  A
C660        C665   1.421       .  A
C660        H666   1.083       .  S
C661        C662   1.397   1_556  A
C662        C663   1.409   1_554  A
C663        C664   1.419       .  A
C663        H668   1.061   1_556  S
C664        C665   1.426       .  A
C665        H669   1.075       .  S
C670        C675   1.394       .  A
C670        H676   1.084       .  S
C671        C672   1.405       .  A
C672        C673   1.400       .  A
C672        H677   1.083       .  S
C673        C674   1.398   1_556  A
C673        H678   1.079       .  S
C675        H679   1.083       .  S
C680        C681   1.415       .  A
C680        C685   1.436       .  A
C681        C682   1.405       .  A
C682        C683   1.403       .  A
C682        H687   1.083       .  S
C683        C684   1.422       .  A
C683        H688   1.077       .  S
C684        C685   1.423       .  A
C685        H689   1.079       .  S
C690        C691   1.404   1_554  A
C690        C695   1.408   1_554  A
C691        C692   1.413       .  A
C692        C693   1.426       .  A
C692        H697   1.082       .  S
C693        C694   1.424       .  A
C693        H698   1.083       .  S
C694        C695   1.421       .  A
C695        H699   1.076   1_656  S
C700        C705   1.396       .  A
C700        H706   1.082       .  S
C701        C702   1.400       .  A
C702        C703   1.384       .  A
C702        H707   1.084       .  S
C703        C704   1.399       .  A
C703        H708   1.084       .  S
C705        H709   1.075       .  S
C710        C711   1.416       .  A
C710        C715   1.396       .  A
C710        H716   1.083       .  S
C711        C712   1.421       .  A
C712        C713   1.429       .  A
C712        H717   1.080       .  S
C713        C714   1.415       .  A
C713        H718   1.080       .  S
C714        C715   1.401       .  A
C715        H719   1.077       .  S
C720        C721   1.403   1_554  A
C720        C725   1.412   1_554  A
C720        H726   1.082       .  S
C721        C722   1.408       .  A
C722        C723   1.414       .  A
C722        H727   1.080       .  S
C723        C724   1.417       .  A
C723        H728   1.078       .  S
C724        C725   1.418       .  A
C725        H729   1.074       .  S
C730        C735   1.404       .  A
C730        H736   1.080       .  S
C731        C732   1.403       .  A
C732        C733   1.390       .  A
C732        H737   1.082       .  S
C733        C734   1.402       .  A
C733        H738   1.082   1_556  S
C735        H739   1.080       .  S
C740        C741   1.413       .  A
C740        C745   1.434   1_545  A
C740        H746   1.080       .  S
C741        C742   1.403       .  A
C742        C743   1.393       .  A
C742        H747   1.071       .  S
C743        C744   1.410   1_545  A
C743        H748   1.084       .  S
C744        C745   1.427       .  A
C745        H749   1.081       .  S
C750        C751   1.414       .  A
C750        C755   1.403   1_556  A
C750        H756   1.078   1_556  S
C751        C752   1.434       .  A
C752        C753   1.436       .  A
C752        H757   1.081       .  S
C753        C754   1.414       .  A
C753        H758   1.083       .  S
C754        C755   1.398   1_556  A
C760        C761   1.394       .  A
C760        C765   1.389       .  A
C760        H766   1.083       .  S
C762        C763   1.395       .  A
C762        H767   1.077       .  S
C763        H768   1.083       .  S
C764        C765   1.408       .  A
C765        H769   1.083       .  S
C770        C771   1.394       .  A
C770        C775   1.400       .  A
C770        H776   1.084       .  S
C771        C772   1.412       .  A
C772        C773   1.431       .  A
C773        C774   1.413       .  A
C773        H778   1.076       .  S
C774        C775   1.427       .  A
C775        H779   1.071       .  S
C780        C781   1.411       .  A
C780        C785   1.395       .  A
C781        C782   1.424       .  A
C782        C783   1.433       .  A
C782        H787   1.077       .  S
C783        C784   1.420       .  A
C783        H788   1.081       .  S
C784        C785   1.411       .  A
C785        H789   1.082       .  S
C790        C791   1.397   1_556  A
C790        C795   1.387       .  A
C790        H796   1.080       .  S
C791        C792   1.396       .  A
C792        C793   1.389       .  A
C793        C794   1.404   1_554  A
C793        H798   1.084       .  S
C794        C795   1.399       .  A
C795        H799   1.083       .  S
C800        C801   1.410       .  A
C800        C805   1.420       .  A
C800        H806   1.082       .  S
C801        C802   1.403       .  A
C802        C803   1.410       .  A
C802        H807   1.079       .  S
C803        C804   1.418       .  A
C803        H808   1.071       .  S
C804        C805   1.417       .  A
C805        H809   1.077       .  S
C810        C811   1.412       .  A
C810        C815   1.399       .  A
C810        H816   1.077       .  S
C811        C812   1.426       .  A
C812        C813   1.433       .  A
C813        C814   1.418       .  A
C813        H818   1.081   1_545  S
C814        C815   1.415       .  A
C815        H819   1.081       .  S
