geometry optimzed in LAMMPS
_audit_creation_date              2020-11-30 
_audit_creation_method            'lammps2cif' 
_symmetry_space_group_name_H-M    'P1' 
_symmetry_Int_Tables_number       1 
_symmetry_cell_setting            triclinic 
loop_ 
_symmetry_equiv_pos_as_xyz 
  x,y,z 
_cell_length_a                    34.4587797 
_cell_length_b                    34.466791330726245 
_cell_length_c                    28.6432978370461 
_cell_angle_alpha                 90.00964180219894 
_cell_angle_beta                  89.71763983825998 
_cell_angle_gamma                 119.44523384205885 
loop_ 
_atom_site_label 
_atom_site_type_symbol 
_atom_site_fract_x 
_atom_site_fract_y 
_atom_site_fract_z 
_atom_site_charge 
N1          N  0.32115920  0.34751071  0.40562904    -0.27500
N2          N  0.34131288  0.38575345  0.42841113    -0.35300
C3          C  0.36842531  0.41824545  0.39879033     0.00900
C4          C  0.36570838  0.39963385  0.35536654     0.06900
C5          C  0.33581335  0.35462503  0.36104922    -0.06200
H6          H  0.39141367  0.45212675  0.40910334     0.07600
H7          H  0.32671204  0.32873407  0.33517653     0.08800
Cu8        Cu  0.33851861  0.39075996  0.00049673     0.44200
Cu9        Cu  0.27590762  0.28751890  0.43757881     0.42000
Cu10       Cu  0.27097333  0.29025254  0.06525035     0.43900
N11         N  0.34307526  0.38629869  0.07237961    -0.34900
N12         N  0.32055821  0.34872109  0.09614098    -0.29100
C13         C  0.33614004  0.35544204  0.14026682    -0.05200
C14         C  0.36921818  0.39959826  0.14450266     0.07000
C15         C  0.37265829  0.41803448  0.10081886     0.00800
H16         H  0.32490171  0.32993317  0.16697763     0.08500
H17         H  0.39702432  0.45127867  0.08967017     0.07500
N18         N  0.22434618  0.23787410  0.02411578    -0.36300
N19         N  0.22709641  0.23623131  0.47813695    -0.28500
C20         C  0.19215215  0.19825089  0.46273083    -0.03700
C21         C  0.16565145  0.17437980  0.00060274     0.04900
C22         C  0.18725155  0.20123169  0.03887489     0.03000
H23         H  0.18635190  0.18880994  0.42634603     0.08100
H24         H  0.17658325  0.19587034  0.07485528     0.06900
N25         N  0.59106806  0.57782361  0.40913390    -0.27500
N26         N  0.57326921  0.53885316  0.43073715    -0.35300
C27         C  0.54589645  0.50678575  0.40106269     0.00900
C28         C  0.54597430  0.52654046  0.35895673     0.06900
C29         C  0.57462601  0.57165820  0.36548442    -0.06200
H30         H  0.52515374  0.47208502  0.41043566     0.07600
H31         H  0.58252164  0.59810749  0.34052212     0.08800
Cu32       Cu  0.58089220  0.53269886  0.00203094     0.44200
Cu33       Cu  0.63762871  0.63717061  0.44067493     0.42000
Cu34       Cu  0.65117332  0.63431792  0.06614535     0.43900
N35         N  0.57839050  0.53803497  0.07432146    -0.34900
N36         N  0.60115574  0.57580466  0.09753750    -0.29100
C37         C  0.58520267  0.56966257  0.14170326    -0.05200
C38         C  0.55173740  0.52569846  0.14664673     0.07000
C39         C  0.54844549  0.50678443  0.10327820     0.00800
H40         H  0.59623339  0.59554164  0.16786057     0.08500
H41         H  0.52355735  0.47370735  0.09252301     0.07500
N42         N  0.69672827  0.68605683  0.02279499    -0.36300
N43         N  0.69050797  0.68763772  0.47752393    -0.28500
C44         C  0.72496560  0.72469221  0.45944958    -0.03700
C45         C  0.75548557  0.74771895  0.99458265     0.04900
C46         C  0.73579787  0.72195241  0.03439636     0.03000
H47         H  0.72664925  0.73388298  0.42325347     0.08100
H48         H  0.74919539  0.72850426  0.06937189     0.06900
O49         O  0.40591079  0.45876237  0.19907582    -0.73100
O50         O  0.49551045  0.52320008  0.30079516    -0.74100
O51         O  0.49829741  0.52317593  0.20147735    -0.62700
O52         O  0.40356344  0.45871124  0.30034662    -0.71100
O53         O  0.41865912  0.40304958  0.30020630    -0.70700
O54         O  0.51326349  0.46745747  0.20220656    -0.61900
O55         O  0.51035718  0.46744756  0.30374928    -0.74400
O56         O  0.42091264  0.40308883  0.20140378    -0.73200
Cu57       Cu  0.45010554  0.49278892  0.25033795     1.04600
Cu58       Cu  0.46655403  0.43350050  0.25191319     1.04300
C59         C  0.39963027  0.42118797  0.18392427     0.93100
C60         C  0.51628811  0.50489959  0.31898156     0.92200
C61         C  0.52018958  0.50487530  0.18581383     0.84400
C62         C  0.39685795  0.42119706  0.31629756     0.90600
N63         N  0.56725853  0.92552363  0.40589627    -0.27500
N64         N  0.52845046  0.90834694  0.42787122    -0.35300
C65         C  0.49744018  0.90634588  0.39792876     0.00900
C66         C  0.51786303  0.92363644  0.35529402     0.06900
C67         C  0.56217659  0.93577263  0.36181223    -0.06200
H68         H  0.46358040  0.89703794  0.40768731     0.07600
H69         H  0.58915920  0.95274302  0.33699039     0.08800
Cu70       Cu  0.52274230  0.89884486  0.00010341     0.44200
Cu71       Cu  0.62588138  0.93710126  0.43832961     0.42000
Cu72       Cu  0.62542402  0.92807085  0.06415886     0.43900
N73         N  0.52992665  0.90968770  0.07206988    -0.34900
N74         N  0.56780249  0.92319757  0.09480580    -0.29100
C75         C  0.56297596  0.93483541  0.13855977    -0.05200
C76         C  0.51980150  0.92728558  0.14387816     0.07000
C77         C  0.49987528  0.91129648  0.10110274     0.00800
H78         H  0.58927476  0.94883174  0.16421714     0.08500
H79         H  0.46697064  0.90453910  0.09077209     0.07500
N80         N  0.67808657  0.93455032  0.02184124    -0.36300
N81         N  0.67843540  0.93950881  0.47608135    -0.28500
C82         C  0.71689927  0.94455341  0.45850390    -0.03700
C83         C  0.74214412  0.94169244  0.99461078     0.04900
C84         C  0.71636722  0.93578276  0.03440322     0.03000
H85         H  0.72585021  0.95110638  0.42210933     0.08100
H86         H  0.72484324  0.93255998  0.06997404     0.06900
N87         N  0.35690991  0.99568059  0.40991330    -0.27500
N88         N  0.39624770  0.01573281  0.43058887    -0.35300
C89         C  0.42753949  0.01865929  0.40007146     0.00900
C90         C  0.40685334  0.99895746  0.35848317     0.06900
C91         C  0.36207676  0.98445192  0.36619522    -0.06200
H92         H  0.46217222  0.03092650  0.40871291     0.07600
H93         H  0.33501397  0.96588426  0.34220556     0.08800
Cu94       Cu  0.40390342  0.02946165  0.50211452     0.44200
Cu95       Cu  0.29741360  0.98309301  0.44243944     0.42000
Cu96       Cu  0.30141935  0.99790656  0.06695120     0.43900
N97         N  0.39849029  0.02169867  0.07466291    -0.34900
N98         N  0.36042558  0.00710709  0.09774541    -0.29100
C99         C  0.36581305  0.99643932  0.14164231    -0.05200
C100        C  0.40953362  0.00574991  0.14683435     0.07000
C101        C  0.42923667  0.02178562  0.10367681     0.00800
H102        H  0.33931040  0.98105654  0.16725675     0.08500
H103        H  0.46222570  0.02884348  0.09290295     0.07500
N104        N  0.24643169  0.98716634  0.02659585    -0.36300
N105        N  0.24446669  0.98016145  0.48110694    -0.28500
C106        C  0.20495780  0.97362641  0.46526410    -0.03700
C107        C  0.18025493  0.97658103  0.50237214     0.04900
C108        C  0.20836835  0.98577579  0.04067673     0.03000
H109        H  0.19499718  0.96727976  0.42907658     0.08100
H110        H  0.20275796  0.99241286  0.07610842     0.06900
O111        O  0.52140301  0.97658889  0.30013544    -0.73100
O112        O  0.46682436  0.01846139  0.20153264    -0.74100
O113        O  0.46553195  0.01547054  0.30335098    -0.62700
O114        O  0.52265540  0.97895403  0.20094179    -0.71100
O115        O  0.46175280  0.91253083  0.19863453    -0.70700
O116        O  0.40484386  0.94892587  0.30037687    -0.61900
O117        O  0.40602966  0.95190511  0.20119824    -0.74400
O118        O  0.46062589  0.90998659  0.30014812    -0.73200
Cu119      Cu  0.49611884  0.99978758  0.25151292     1.04600
Cu120      Cu  0.43133174  0.92846846  0.24998600     1.04300
C121        C  0.49920296  0.93704375  0.31633109     0.93100
C122        C  0.42817714  0.99162980  0.18535716     0.92200
C123        C  0.42660760  0.98755877  0.31858703     0.84400
C124        C  0.50074290  0.94000415  0.18335303     0.90600
N125        N  0.98965459  0.34916185  0.10237522    -0.27500
N126        N  0.00904670  0.38796746  0.08028806    -0.35300
C127        C  0.01347027  0.42011193  0.11013637     0.00900
C128        C  0.99544446  0.40067079  0.15283379     0.06900
C129        C  0.98030921  0.35561610  0.14650266    -0.06200
H130        H  0.02500108  0.45438221  0.10023913     0.07600
H131        H  0.96206460  0.32921076  0.17153788     0.08800
Cu132      Cu  0.01877422  0.39436556  0.50808826     0.44200
Cu133      Cu  0.97425124  0.28863546  0.07053161     0.42000
Cu134      Cu  0.97891063  0.29128088  0.44458909     0.43900
N135        N  0.00800499  0.38911971  0.43613692    -0.34900
N136        N  0.99041709  0.35067126  0.41370240    -0.29100
C137        C  0.98022156  0.35668527  0.36993435    -0.05200
C138        C  0.99294957  0.40121432  0.36413104     0.07000
C139        C  0.01045334  0.42082002  0.40677438     0.00800
H140        H  0.96357771  0.33033290  0.34463713     0.08500
H141        H  0.02088186  0.45481203  0.41679193     0.07500
N142        N  0.97103139  0.23706640  0.48385727    -0.36900
N143        N  0.96816366  0.23548119  0.02988956    -0.28500
C144        C  0.96334702  0.19620869  0.04459953    -0.03700
C145        C  0.96402828  0.17193210  0.50600319     0.04900
C146        C  0.96858716  0.19911824  0.46816838     0.03000
H147        H  0.95909657  0.18636719  0.08079183     0.08100
H148        H  0.97082729  0.19217385  0.43172180     0.06900
N149        N  0.93748382  0.57340814  0.09981308    -0.27500
N150        N  0.91658006  0.53418865  0.07887829    -0.35300
C151        C  0.91175877  0.50225604  0.10926819     0.00900
C152        C  0.93112549  0.52224627  0.15113175     0.06900
C153        C  0.94738906  0.56740521  0.14376843    -0.06200
H154        H  0.89866866  0.46755207  0.10028537     0.07600
H155        H  0.96643725  0.59408212  0.16804790     0.08800
Cu156      Cu  0.90453251  0.52668500  0.00732070     0.44200
Cu157      Cu  0.95316760  0.63355733  0.06662068     0.42000
Cu158      Cu  0.93596773  0.62739866  0.44178332     0.43900
N159        N  0.91206732  0.53100429  0.43494046    -0.34900
N160        N  0.92607477  0.56860875  0.41139927    -0.29100
C161        C  0.93560578  0.56268519  0.36721452    -0.05200
C162        C  0.92615440  0.51900088  0.36243823     0.07000
C163        C  0.91134206  0.49987177  0.40599101     0.00800
H164        H  0.95007948  0.58872975  0.34109200     0.08500
H165        H  0.90428292  0.46694709  0.41682102     0.07500
N166        N  0.94870464  0.68286922  0.48121594    -0.36300
N167        N  0.95706829  0.68607359  0.02634524    -0.28500
C168        C  0.96504773  0.72642829  0.04110893    -0.03700
C169        C  0.96047856  0.74977914  0.00363461     0.04900
C170        C  0.95031561  0.72061324  0.46628290     0.03000
H171        H  0.97369965  0.73719121  0.07663205     0.08100
H172        H  0.94361725  0.72588638  0.43069284     0.06900
O173        O  0.01180659  0.45971359  0.30896725    -0.73100
O174        O  0.98014982  0.52068127  0.20802346    -0.74100
O175        O  0.97797688  0.51975647  0.30704440    -0.62700
O176        O  0.01330853  0.45967848  0.20736922    -0.71100
O177        O  0.94470195  0.40184010  0.20814843    -0.70700
O178        O  0.90946843  0.46167517  0.30698455    -0.61900
O179        O  0.91164097  0.46279955  0.20566897    -0.74400
O180        O  0.94332196  0.40171679  0.30715322    -0.73200
Cu181      Cu  0.99828950  0.49187182  0.25784992     1.04600
Cu182      Cu  0.92484245  0.43012569  0.25692967     1.04300
C183        C  0.98240222  0.42168069  0.32460351     0.93100
C184        C  0.94115037  0.50107966  0.19048916     0.92200
C185        C  0.93823952  0.49949250  0.32325146     0.84400
C186        C  0.98427722  0.42156962  0.19165609     0.90600
C187        C  0.00180181  0.00240136  0.98552306     0.02100
C188        C  0.95957680  0.00071345  0.98787971     0.02100
C189        C  0.91962636  0.95863868  0.99039722     0.02100
C190        C  0.92210834  0.91861055  0.98992070     0.02100
C191        C  0.96415314  0.92052701  0.98778789     0.02100
C192        C  0.00406163  0.96224878  0.98573279     0.02100
C193        C  0.97282313  0.81693668  0.45807893    -0.20500
C194        C  0.96435719  0.79523862  0.00183394    -0.07100
C195        C  0.95717858  0.81648885  0.04096844     0.13800
C196        C  0.95854481  0.85762870  0.03497778    -0.20500
C197        C  0.96603617  0.87824031  0.99125049    -0.07100
C198        C  0.97290008  0.85744028  0.45214173     0.13800
C199        C  0.97880769  0.87609776  0.40344843    -0.23900
H200        H  0.97875361  0.80193833  0.42763263     0.15100
H201        H  0.95318400  0.87387733  0.06474370     0.15100
C202        C  0.94670577  0.79638899  0.08915065    -0.23800
H203        H  0.95247180  0.85112348  0.38052112     0.05300
H204        H  0.01182096  0.88350957  0.88951807     0.08600
H205        H  0.97632083  0.90689828  0.40191010     0.08600
H206        H  0.97675021  0.79738937  0.10417501     0.08500
H207        H  0.91826037  0.76186829  0.58788976     0.08500
H208        H  0.93707245  0.81542955  0.11338387     0.05300
C209        C  0.94091366  0.10018343  0.46439001    -0.20500
C210        C  0.96087662  0.12698815  0.50385159    -0.07100
C211        C  0.97971801  0.11134254  0.03795380     0.13800
C212        C  0.97740870  0.06983145  0.03183548    -0.20500
C213        C  0.95810255  0.04346137  0.99218777    -0.07100
C214        C  0.93981788  0.05920002  0.45772429     0.13800
C215        C  0.92055503  0.03484740  0.41267476    -0.23900
H216        H  0.92660499  0.11163284  0.43779320     0.15100
H217        H  0.99114797  0.05772664  0.05837843     0.15100
C218        C  0.00413352  0.13837089  0.08005278    -0.23800
H219        H  0.93846681  0.05700939  0.38270502     0.05300
H220        H  0.88479645  0.02534439  0.41067768     0.08600
H221        H  0.92350423  0.00443052  0.40892479     0.08600
H222        H  0.98018169  0.13944819  0.10519649     0.08500
H223        H  0.02964182  0.17250038  0.06928810     0.08500
H224        H  0.02172843  0.12339708  0.09884848     0.05300
C225        C  0.06087797  0.95283670  0.03046726    -0.20500
C226        C  0.04853526  0.96407230  0.98816168    -0.07100
C227        C  0.07938404  0.97885518  0.45061148     0.13800
C228        C  0.12184385  0.98325812  0.45695364    -0.20500
C229        C  0.13471801  0.97250829  0.49953741    -0.07100
C230        C  0.10303532  0.95637625  0.03669872     0.13800
C231        C  0.11211717  0.94159887  0.08284711    -0.23900
H232        H  0.03737019  0.94186405  0.05932733     0.15100
H233        H  0.14515589  0.99542658  0.42795545     0.15100
C234        C  0.06862806  0.98970428  0.40316619    -0.23800
H235        H  0.08139763  0.92407156  0.10448199     0.05300
H236        H  0.13598219  0.97098392  0.10315619     0.08600
H237        H  0.12493270  0.91802206  0.57720397     0.08600
H238        H  0.09220800  0.02503668  0.89458246     0.08500
H239        H  0.03424686  0.98421858  0.40094890     0.08500
H240        H  0.07219328  0.96822972  0.37654551     0.05300
C241        C  0.84557897  0.93558717  0.45480837    -0.20500
C242        C  0.87463230  0.95566199  0.99242937    -0.07100
C243        C  0.85933676  0.97007329  0.03117981     0.13800
C244        C  0.81665512  0.96594525  0.03007882    -0.20500
C245        C  0.78762375  0.94614702  0.99224549    -0.07100
C246        C  0.80223958  0.92974436  0.45447220     0.13800
C247        C  0.77223921  0.90393449  0.41460134    -0.23900
H248        H  0.85696774  0.92397817  0.42539561     0.15100
H249        H  0.80581010  0.97793312  0.05960912     0.15100
C250        C  0.88611973  0.98846242  0.07505119    -0.23800
H251        H  0.78689548  0.88742902  0.39317457     0.05300
H252        H  0.76754862  0.92664329  0.39092417     0.08600
H253        H  0.73971372  0.87739385  0.92814490     0.08600
H254        H  0.89342530  0.02336527  0.58020232     0.08500
H255        H  0.91790363  0.98780714  0.07442721     0.08500
H256        H  0.86659597  0.96833803  0.10553745     0.05300
C257        C  0.81431314  0.81706748  0.03264362    -0.20500
C258        C  0.79890674  0.79100814  0.99192715    -0.07100
C259        C  0.82634438  0.80638140  0.45121739     0.13800
C260        C  0.86600308  0.84780193  0.45193206    -0.20500
C261        C  0.88029395  0.87403121  0.99230090    -0.07100
C262        C  0.85480677  0.85748257  0.03364559     0.13800
C263        C  0.86988139  0.88080731  0.07985301    -0.23900
H264        H  0.79474648  0.80588009  0.06446925     0.15100
H265        H  0.88606078  0.86011460  0.42049390     0.15100
C266        C  0.81575048  0.77938472  0.40708553    -0.23800
H267        H  0.87272247  0.85808929  0.10536557     0.05300
H268        H  0.84491127  0.88973776  0.59301632     0.08600
H269        H  0.90282393  0.91137558  0.07778700     0.08600
H270        H  0.78824307  0.78043053  0.38836990     0.08500
H271        H  0.80719764  0.74462506  0.91513527     0.08500
H272        H  0.84467256  0.79309096  0.38269995     0.05300
C273        C  0.06931072  0.05691959  0.02878746    -0.20500
C274        C  0.04412917  0.04648790  0.98776583    -0.07100
C275        C  0.05865254  0.07859076  0.45145292     0.13800
C276        C  0.09742778  0.11997611  0.45751954    -0.20500
C277        C  0.12305797  0.13053322  0.99859124    -0.07100
C278        C  0.10846626  0.09800409  0.03472288     0.13800
C279        C  0.13388142  0.10502857  0.07940432    -0.23900
H280        H  0.05772074  0.03264007  0.05686169     0.15100
H281        H  0.10771448  0.14420109  0.42949009     0.15100
C282        C  0.03474694  0.07025290  0.40555278    -0.23800
H283        H  0.12064667  0.07382499  0.10018904     0.05300
H284        H  0.13043689  0.12950780  0.10156662     0.08600
H285        H  0.16942252  0.11622024  0.57168849     0.08600
H286        H  0.02318056  0.09486919  0.90076187     0.08500
H287        H  0.00566565  0.03634233  0.40308723     0.08500
H288        H  0.05793621  0.07421127  0.37657464     0.05300
N289        N  0.32112965  0.34751740  0.90564959    -0.27500
N290        N  0.34127546  0.38576639  0.92842148    -0.35300
C291        C  0.36839519  0.41825083  0.89879672     0.00900
C292        C  0.36569228  0.39962718  0.85538204     0.06900
C293        C  0.33579634  0.35461986  0.86107411    -0.06200
H294        H  0.39137876  0.45213567  0.90910274     0.07600
H295        H  0.32670205  0.32872188  0.83521120     0.08800
Cu296      Cu  0.33856949  0.39073212  0.50048709     0.44200
Cu297      Cu  0.27587590  0.28753078  0.93760782     0.42000
Cu298      Cu  0.27098222  0.29023904  0.56522821     0.43900
N299        N  0.34310715  0.38627162  0.57237038    -0.34900
N300        N  0.32056926  0.34869812  0.59613282    -0.29100
C301        C  0.33613207  0.35541898  0.64026663    -0.05200
C302        C  0.36921934  0.39957169  0.64450479     0.07000
C303        C  0.37268565  0.41800466  0.60081461     0.00800
H304        H  0.32487451  0.32991259  0.66698160     0.08500
H305        H  0.39706439  0.45124450  0.58966720     0.07500
N306        N  0.22435719  0.23787002  0.52408127    -0.36300
N307        N  0.22707638  0.23623705  0.97817051    -0.28500
C308        C  0.19213510  0.19825201  0.96276918    -0.03700
C309        C  0.16565715  0.17438384  0.50056005     0.04900
C310        C  0.18725370  0.20123393  0.53883432     0.03000
H311        H  0.18632936  0.18881113  0.92638466     0.08100
H312        H  0.17657774  0.19587604  0.57481219     0.06900
N313        N  0.59107294  0.57781010  0.90912293    -0.27500
N314        N  0.57327490  0.53884222  0.93073137    -0.35300
C315        C  0.54589714  0.50677194  0.90106266     0.00900
C316        C  0.54597089  0.52652252  0.85895557     0.06900
C317        C  0.57462581  0.57164029  0.86547574    -0.06200
H318        H  0.52515321  0.47207276  0.91044088     0.07600
H319        H  0.58251914  0.59808685  0.84051057     0.08800
Cu320      Cu  0.58088380  0.53270237  0.50203685     0.44200
Cu321      Cu  0.63763429  0.63716125  0.94065416     0.42000
Cu322      Cu  0.65116665  0.63431724  0.56616640     0.43900
N323        N  0.57838498  0.53802733  0.57433000    -0.34900
N324        N  0.60114908  0.57579387  0.59755199    -0.29100
C325        C  0.58519608  0.56964246  0.64171872    -0.05200
C326        C  0.55173305  0.52567588  0.64665705     0.07000
C327        C  0.54844183  0.50677047  0.60328351     0.00800
H328        H  0.59622411  0.59551733  0.66788055     0.08500
H329        H  0.52355406  0.47369517  0.59252279     0.07500
N330        N  0.69672589  0.68606222  0.52281821    -0.36300
N331        N  0.69051020  0.68763223  0.97750112    -0.28500
C332        C  0.72496644  0.72468808  0.95942770    -0.03700
C333        C  0.75548555  0.74772231  0.49460329     0.04900
C334        C  0.73579703  0.72195837  0.53441860     0.03000
H335        H  0.72664928  0.73387628  0.92323113     0.08100
H336        H  0.74919560  0.72851353  0.56939379     0.06900
O337        O  0.40590185  0.45873495  0.69908122    -0.73100
O338        O  0.49550145  0.52317863  0.80079934    -0.74100
O339        O  0.49828824  0.52314894  0.70148331    -0.62700
O340        O  0.40355265  0.45869562  0.80035347    -0.71100
O341        O  0.41864424  0.40303143  0.80022492    -0.70700
O342        O  0.51325234  0.46742937  0.70221513    -0.61900
O343        O  0.51034587  0.46742461  0.80375780    -0.74400
O344        O  0.42090028  0.40305934  0.70141957    -0.73200
Cu345      Cu  0.45009581  0.49276568  0.75034339     1.04600
Cu346      Cu  0.46654110  0.43347535  0.75192654     1.04300
C347        C  0.39962149  0.42115921  0.68393368     0.93100
C348        C  0.51627952  0.50487856  0.81898591     0.92200
C349        C  0.52018070  0.50484822  0.68582148     0.84400
C350        C  0.39684491  0.42118319  0.81631180     0.90600
N351        N  0.56726900  0.92552326  0.90587919    -0.27500
N352        N  0.52846321  0.90835501  0.92785813    -0.35300
C353        C  0.49745372  0.90636255  0.89792015     0.00900
C354        C  0.51787400  0.92365144  0.85528425     0.06900
C355        C  0.56218590  0.93577630  0.86179657    -0.06200
H356        H  0.46359691  0.89706227  0.90768307     0.07600
H357        H  0.58916690  0.95274165  0.83697182     0.08800
Cu358      Cu  0.52272948  0.89883295  0.50011556     0.44200
Cu359      Cu  0.62589145  0.93708732  0.93830946     0.42000
Cu360      Cu  0.62542476  0.92808764  0.56417205     0.43900
N361        N  0.52991667  0.90967745  0.57208095    -0.34900
N362        N  0.56779522  0.92319899  0.59481560    -0.29100
C363        C  0.56296683  0.93484009  0.63856717    -0.05200
C364        C  0.51978904  0.92728040  0.64388521     0.07000
C365        C  0.49986215  0.91128158  0.60111259     0.00800
H366        H  0.58926722  0.94884796  0.66422214     0.08500
H367        H  0.46695560  0.90451764  0.59078130     0.07500
N368        N  0.67808605  0.93456902  0.52185073    -0.36300
N369        N  0.67844212  0.93949277  0.97607163    -0.28500
C370        C  0.71690979  0.94454009  0.95850150    -0.03700
C371        C  0.74213814  0.94170741  0.49460832     0.04900
C372        C  0.71636829  0.93580144  0.53440589     0.03000
H373        H  0.72586598  0.95109549  0.92210845     0.08100
H374        H  0.72485018  0.93258105  0.56997495     0.06900
N375        N  0.35694602  0.99572896  0.90992306    -0.27500
N376        N  0.39628511  0.01577444  0.93059649    -0.35300
C377        C  0.42757257  0.01869536  0.90007608     0.00900
C378        C  0.40688160  0.99899697  0.85848836     0.06900
C379        C  0.36210748  0.98449939  0.86620385    -0.06200
H380        H  0.46220458  0.03095509  0.90871524     0.07600
H381        H  0.33504205  0.96593512  0.84221600     0.08800
Cu382      Cu  0.40394540  0.02949758  0.00212292     0.44200
Cu383      Cu  0.29745145  0.98314503  0.94245023     0.42000
Cu384      Cu  0.30138493  0.99787638  0.56694741     0.43900
N385        N  0.39845995  0.02168110  0.57465722    -0.34900
N386        N  0.36039804  0.00709229  0.59774432    -0.29100
C387        C  0.36579421  0.99643800  0.64164456    -0.05200
C388        C  0.40951761  0.00575444  0.64683373     0.07000
C389        C  0.42921255  0.02177928  0.60367040     0.00800
H390        H  0.33929534  0.98105858  0.66726345     0.08500
H391        H  0.46220030  0.02883603  0.59289288     0.07500
N392        N  0.24639726  0.98712980  0.52658395    -0.36300
N393        N  0.24450059  0.98020424  0.98111805    -0.28500
C394        C  0.20498817  0.97366364  0.96528036    -0.03700
C395        C  0.18028346  0.97660833  0.00239337     0.04900
C396        C  0.20833603  0.98574809  0.54065861     0.03000
H397        H  0.19502552  0.96731713  0.92909345     0.08100
H398        H  0.20272495  0.99239409  0.57608678     0.06900
O399        O  0.52141142  0.97660592  0.80012637    -0.73100
O400        O  0.46681931  0.01847274  0.70152472    -0.74100
O401        O  0.46554855  0.01549819  0.80334553    -0.62700
O402        O  0.52264724  0.97895966  0.70093458    -0.71100
O403        O  0.46174108  0.91253857  0.69863799    -0.70700
O404        O  0.40485664  0.94895543  0.80038614    -0.61900
O405        O  0.40602178  0.95191883  0.70120640    -0.74400
O406        O  0.46063059  0.91000656  0.80014914    -0.73200
Cu407      Cu  0.49612180  0.99980321  0.75150483     1.04600
Cu408      Cu  0.43133091  0.92848657  0.74999190     1.04300
C409        C  0.49921146  0.93706159  0.81632498     0.93100
C410        C  0.42816803  0.99164056  0.68535737     0.92200
C411        C  0.42662657  0.98759060  0.81859015     0.84400
C412        C  0.50073138  0.94000723  0.68335320     0.90600
N413        N  0.98973670  0.34920335  0.60237154    -0.27500
N414        N  0.00912489  0.38800674  0.58028021    -0.35300
C415        C  0.01354562  0.42015290  0.61012480     0.00900
C416        C  0.99552278  0.40071451  0.65282420     0.06900
C417        C  0.98039255  0.35566049  0.64649783    -0.06200
H418        H  0.02506767  0.45442027  0.60022242     0.07600
H419        H  0.96214606  0.32925628  0.67153369     0.08800
Cu420      Cu  0.01871036  0.39433588  0.00809754     0.44200
Cu421      Cu  0.97431704  0.28867148  0.57053344     0.42000
Cu422      Cu  0.97891850  0.29126891  0.94458355     0.43900
N423        N  0.00797449  0.38910147  0.93613972    -0.34900
N424        N  0.99041415  0.35065894  0.91369586    -0.29100
C425        C  0.98023782  0.35667797  0.86992035    -0.05200
C426        C  0.99295069  0.40120465  0.86412263     0.07000
C427        C  0.01042420  0.42080264  0.90677727     0.00800
H428        H  0.96361766  0.33033033  0.84461321     0.08500
H429        H  0.02083374  0.45478927  0.91680010     0.07500
N430        N  0.97103062  0.23705087  0.98385853    -0.36900
N431        N  0.96819135  0.23550464  0.52988941    -0.28500
C432        C  0.96337586  0.19623184  0.54459538    -0.03700
C433        C  0.96402596  0.17191717  0.00601275     0.04900
C434        C  0.96860145  0.19910697  0.96817546     0.03000
H435        H  0.95914684  0.18639844  0.58078903     0.08100
H436        H  0.97086045  0.19216629  0.93173180     0.06900
N437        N  0.93752981  0.57346444  0.59982732    -0.27500
N438        N  0.91662425  0.53424996  0.57888281    -0.35300
C439        C  0.91180591  0.50231000  0.60926087     0.00900
C440        C  0.93117643  0.52228953  0.65112705     0.06900
C441        C  0.94743861  0.56745060  0.64377770    -0.06200
H442        H  0.89871362  0.46760808  0.60026781     0.07600
H443        H  0.96648768  0.59412145  0.66806306     0.08800
Cu444      Cu  0.90456917  0.52676030  0.50732553     0.44200
Cu445      Cu  0.95321633  0.63362075  0.56664792     0.42000
Cu446      Cu  0.93585276  0.62731555  0.94177793     0.43900
N447        N  0.91203385  0.53093987  0.93493630    -0.34900
N448        N  0.92600715  0.56853995  0.91139591    -0.29100
C449        C  0.93554615  0.56262947  0.86720978    -0.05200
C450        C  0.92613559  0.51895816  0.86243181     0.07000
C451        C  0.91133964  0.49982311  0.90598495     0.00800
H452        H  0.94999717  0.58867549  0.84108694     0.08500
H453        H  0.90431047  0.46690714  0.91681287     0.07500
N454        N  0.94860233  0.68279390  0.98120633    -0.36300
N455        N  0.95714022  0.68614154  0.52636182    -0.28500
C456        C  0.96510099  0.72649073  0.54112365    -0.03700
C457        C  0.96055047  0.74984360  0.50364003     0.04900
C458        C  0.95021165  0.72053970  0.96627983     0.03000
H459        H  0.97372355  0.73724730  0.57665297     0.08100
H460        H  0.94349711  0.72581093  0.93069540     0.06900
O461        O  0.01182197  0.45971353  0.80896548    -0.73100
O462        O  0.98019010  0.52070872  0.70802504    -0.74100
O463        O  0.97798095  0.51974659  0.80704723    -0.62700
O464        O  0.01336168  0.45971320  0.70736591    -0.71100
O465        O  0.94475764  0.40187026  0.70811464    -0.70700
O466        O  0.90947682  0.46165852  0.80695465    -0.61900
O467        O  0.91168592  0.46282219  0.70563995    -0.74400
O468        O  0.94334234  0.40171097  0.80711971    -0.73200
Cu469      Cu  0.99831781  0.49188527  0.75785025     1.04600
Cu470      Cu  0.92487523  0.43013327  0.75689621     1.04300
C471        C  0.98241548  0.42167481  0.82458755     0.93100
C472        C  0.94119586  0.50110995  0.69047767     0.92200
C473        C  0.93823846  0.49947078  0.82323994     0.84400
C474        C  0.98433894  0.42160692  0.69163901     0.90600
C475        C  0.00179536  0.00241810  0.48546855     0.02100
C476        C  0.95957137  0.00073071  0.48783308     0.02100
C477        C  0.91961969  0.95865742  0.49036374     0.02100
C478        C  0.92209925  0.91862788  0.48989464     0.02100
C479        C  0.96414454  0.92054545  0.48775289     0.02100
C480        C  0.00405398  0.96226584  0.48568439     0.02100
C481        C  0.97275362  0.81687863  0.95807906    -0.20500
C482        C  0.96440546  0.79529143  0.50183232    -0.07100
C483        C  0.95717837  0.81652104  0.54095388     0.13800
C484        C  0.95851997  0.85764747  0.53495224    -0.20500
C485        C  0.96603156  0.87826303  0.49122552    -0.07100
C486        C  0.97285852  0.85739808  0.95215453     0.13800
C487        C  0.97874688  0.87605289  0.90346210    -0.23900
H488        H  0.97864684  0.80186501  0.92762251     0.15100
H489        H  0.95312775  0.87388413  0.56470898     0.15100
C490        C  0.94668106  0.79641323  0.58913214    -0.23800
H491        H  0.95238551  0.85108807  0.88055024     0.05300
H492        H  0.01189828  0.88358063  0.38953127     0.08600
H493        H  0.97628735  0.90686883  0.90193606     0.08600
H494        H  0.97672316  0.79742874  0.60418298     0.08500
H495        H  0.91827155  0.76185073  0.08792488     0.08500
H496        H  0.93701634  0.81543834  0.61335190     0.05300
C497        C  0.94090809  0.10015929  0.96441730    -0.20500
C498        C  0.96087651  0.12697373  0.00387053    -0.07100
C499        C  0.97971056  0.11134674  0.53793289     0.13800
C500        C  0.97740507  0.06983961  0.53180075    -0.20500
C501        C  0.95810172  0.04347895  0.49214735    -0.07100
C502        C  0.93981441  0.05917552  0.95776085     0.13800
C503        C  0.92055241  0.03481766  0.91271373    -0.23900
H504        H  0.92659647  0.11160336  0.93781810     0.15100
H505        H  0.99113999  0.05772726  0.55834068     0.15100
C506        C  0.00410801  0.13835511  0.58004901    -0.23800
H507        H  0.93846030  0.05697845  0.88274198     0.05300
H508        H  0.88479231  0.02530899  0.91071728     0.08600
H509        H  0.92350884  0.00440482  0.90896566     0.08600
H510        H  0.98014362  0.13941438  0.60518871     0.08500
H511        H  0.02961832  0.17249092  0.56930568     0.08500
H512        H  0.02169854  0.12337504  0.59884181     0.05300
C513        C  0.06085579  0.95283392  0.53042433    -0.20500
C514        C  0.04852721  0.96408758  0.48812033    -0.07100
C515        C  0.07938229  0.97883274  0.95064465     0.13800
C516        C  0.12184759  0.98324729  0.95697955    -0.20500
C517        C  0.13473890  0.97252018  0.99956611    -0.07100
C518        C  0.10300477  0.95635555  0.53665991     0.13800
C519        C  0.11206623  0.94154444  0.58279860    -0.23900
H520        H  0.03734168  0.94185613  0.55927870     0.15100
H521        H  0.14515106  0.99540999  0.92797392     0.15100
C522        C  0.06861020  0.98966459  0.90319874    -0.23800
H523        H  0.08133954  0.92401294  0.60442223     0.05300
H524        H  0.13593328  0.97091286  0.60312674     0.08600
H525        H  0.12499355  0.91808257  0.07726863     0.08600
H526        H  0.09223092  0.02507853  0.39456398     0.08500
H527        H  0.03422760  0.98417635  0.90098990     0.08500
H528        H  0.07216915  0.96818213  0.87658324     0.05300
C529        C  0.84559204  0.93557575  0.95482806    -0.20500
C530        C  0.87462739  0.95568386  0.49240142    -0.07100
C531        C  0.85933982  0.97010523  0.53115079     0.13800
C532        C  0.81665778  0.96597544  0.53005668    -0.20500
C533        C  0.78761754  0.94616415  0.49223358    -0.07100
C534        C  0.80225427  0.92973668  0.95448278     0.13800
C535        C  0.77226566  0.90394278  0.91459822    -0.23900
H536        H  0.85698752  0.92397591  0.92541330     0.15100
H537        H  0.80581862  0.97797071  0.55958555     0.15100
C538        C  0.88612979  0.98850483  0.57501609    -0.23800
H539        H  0.78692456  0.88743930  0.89317228     0.05300
H540        H  0.76758923  0.92666276  0.89092420     0.08600
H541        H  0.73969407  0.87738598  0.42816291     0.08600
H542        H  0.89341340  0.02332125  0.08024655     0.08500
H543        H  0.91791203  0.98784664  0.57439113     0.08500
H544        H  0.86661040  0.96838941  0.60550880     0.05300
C545        C  0.81430067  0.81709391  0.53264309    -0.20500
C546        C  0.79890570  0.79101202  0.49194106    -0.07100
C547        C  0.82633599  0.80639872  0.95119787     0.13800
C548        C  0.86600142  0.84781206  0.95192782    -0.20500
C549        C  0.88028418  0.87404651  0.49228899    -0.07100
C550        C  0.85479128  0.85751384  0.53363382     0.13800
C551        C  0.86985907  0.88085739  0.57983218    -0.23900
H552        H  0.79472824  0.80591838  0.56446623     0.15100
H553        H  0.88605240  0.86014246  0.92048750     0.15100
C554        C  0.81572188  0.77943754  0.90703927    -0.23800
H555        H  0.87269687  0.85815000  0.60536185     0.05300
H556        H  0.84493602  0.88968332  0.09305536     0.08600
H557        H  0.90280242  0.91142378  0.57776084     0.08600
H558        H  0.78821091  0.78050595  0.88835604     0.08500
H559        H  0.80722879  0.74458034  0.41522249     0.08500
H560        H  0.84463448  0.79315887  0.88264075     0.05300
C561        C  0.06929822  0.05693352  0.52873897    -0.20500
C562        C  0.04412361  0.04650361  0.48771294    -0.07100
C563        C  0.05865016  0.07857541  0.95150677     0.13800
C564        C  0.09741994  0.11996493  0.95757212    -0.20500
C565        C  0.12305871  0.13054225  0.49854397    -0.07100
C566        C  0.10845473  0.09801551  0.53467876     0.13800
C567        C  0.13385623  0.10504002  0.57936994    -0.23900
H568        H  0.05770093  0.03265447  0.55681390     0.15100
H569        H  0.10769781  0.14419092  0.92954453     0.15100
C570        C  0.03474214  0.07023361  0.90560783    -0.23800
H571        H  0.12061203  0.07383784  0.60015847     0.05300
H572        H  0.13040830  0.12952261  0.60152315     0.08600
H573        H  0.16944648  0.11621374  0.07170940     0.08600
H574        H  0.02319347  0.09489456  0.40070451     0.08500
H575        H  0.00566659  0.03631959  0.90314122     0.08500
H576        H  0.05793274  0.07419870  0.87662866     0.05300
loop_ 
_geom_bond_atom_site_label_1 
_geom_bond_atom_site_label_2 
_geom_bond_distance 
_geom_bond_site_symmetry_2 
_ccdc_geom_bond_type 
N1            N2   1.323       .  A
N1            C5   1.348       .  A
N1           Cu9   2.088       .  S
N2            C3   1.346       .  A
N2         Cu296   2.077       .  S
C3            C4   1.382       .  A
C3            H6   1.082       .  S
C4            C5   1.386       .  A
C4           C62   1.470       .  S
C5            H7   1.082       .  S
Cu8          N11   2.077       .  S
Cu8         N290   2.077   1_554  S
Cu9          N19   2.088       .  S
Cu10         N12   2.096       .  S
Cu10         N18   2.096       .  S
N11          N12   1.323       .  A
N11          C15   1.346       .  A
N12          C13   1.350       .  A
C13          C14   1.388       .  A
C13          H16   1.082       .  S
C14          C15   1.381       .  A
C14          C59   1.474       .  S
C15          H17   1.082       .  S
N18         N307   1.322   1_554  A
N18          C22   1.347       .  A
N19         N306   1.322       .  A
N19          C20   1.347       .  A
C20         C309   1.392       .  A
C20          H23   1.082       .  S
C21          C22   1.394       .  A
C21         C308   1.392   1_554  A
C21         C277   1.504   1_554  S
C22          H24   1.077       .  S
N25          N26   1.323       .  A
N25          C29   1.348       .  A
N25         Cu33   2.088       .  S
N26          C27   1.348       .  A
N26        Cu320   2.084       .  S
C27          C28   1.384       .  A
C27          H30   1.082       .  S
C28          C29   1.386       .  A
C28          C60   1.475       .  S
C29          H31   1.082       .  S
Cu32         N35   2.084       .  S
Cu32        N314   2.084   1_554  S
Cu33         N43   2.089       .  S
Cu34         N36   2.101       .  S
Cu34         N42   2.101       .  S
N35          N36   1.324       .  A
N35          C39   1.346       .  A
N36          C37   1.351       .  A
C37          C38   1.388       .  A
C37          H40   1.082       .  S
C38          C39   1.382       .  A
C38          C61   1.475       .  S
C39          H41   1.082       .  S
N42         N331   1.321   1_554  A
N42          C46   1.349       .  A
N43         N330   1.321       .  A
N43          C44   1.346       .  A
C44         C333   1.393       .  A
C44          H47   1.077       .  S
C45          C46   1.396   1_556  A
C45         C332   1.393       .  A
C45         C258   1.508       .  S
C46          H48   1.082       .  S
O49         Cu57   2.029       .  S
O49          C59   1.280       .  A
O50         Cu57   2.011       .  S
O50          C60   1.277       .  A
O51         Cu57   2.020       .  S
O51          C61   1.278       .  A
O52         Cu57   2.032       .  S
O52          C62   1.280       .  A
O53         Cu58   2.003       .  S
O53          C62   1.275       .  A
O54         Cu58   2.028       .  S
O54          C61   1.280       .  A
O55         Cu58   2.034       .  S
O55          C60   1.281       .  A
O56         Cu58   2.017       .  S
O56          C59   1.277       .  A
Cu57        Cu58   2.374       .  S
N63          N64   1.322       .  A
N63          C67   1.346       .  A
N63         Cu71   2.081       .  S
N64          C65   1.349       .  A
N64        Cu358   2.088       .  S
C65          C66   1.386       .  A
C65          H68   1.082       .  S
C66          C67   1.384       .  A
C66         C121   1.474       .  S
C67          H69   1.082       .  S
Cu70         N73   2.089       .  S
Cu70        N352   2.088   1_554  S
Cu71         N81   2.080       .  S
Cu72         N74   2.097       .  S
Cu72         N80   2.096       .  S
N73          N74   1.325       .  A
N73          C77   1.347       .  A
N74          C75   1.350       .  A
C75          C76   1.386       .  A
C75          H78   1.082       .  S
C76          C77   1.383       .  A
C76         C124   1.476       .  S
C77          H79   1.082       .  S
N80         N369   1.321   1_554  A
N80          C84   1.349       .  A
N81         N368   1.321       .  A
N81          C82   1.344       .  A
C82         C371   1.389       .  A
C82          H85   1.078       .  S
C83          C84   1.393   1_556  A
C83         C370   1.389       .  A
C83         C245   1.499       .  S
C84          H86   1.082       .  S
N87          N88   1.324   1_565  A
N87          C91   1.347       .  A
N87         Cu95   2.090       .  S
N88          C89   1.349       .  A
N88         Cu94   2.091       .  S
C89          C90   1.386   1_545  A
C89          H92   1.082       .  S
C90          C91   1.385       .  A
C90         C123   1.476       .  S
C91          H93   1.082       .  S
Cu94        N385   2.091       .  S
Cu95        N105   2.089       .  S
Cu96         N98   2.097   1_565  S
Cu96        N104   2.096       .  S
N97          N98   1.324       .  A
N97         C101   1.349       .  A
N97        Cu382   2.091       .  S
N98          C99   1.349   1_545  A
C99         C100   1.386   1_565  A
C99         H102   1.082       .  S
C100        C101   1.385       .  A
C100        C122   1.477   1_545  S
C101        H103   1.082       .  S
N104        N393   1.321   1_554  A
N104        C108   1.348       .  A
N105        N392   1.321       .  A
N105        C106   1.347       .  A
C106        C107   1.393       .  A
C106        H109   1.082       .  S
C107        C396   1.396       .  A
C107        C229   1.508       .  S
C108        C395   1.396       .  A
C108        H110   1.078       .  S
O111       Cu119   2.009       .  S
O111        C121   1.277       .  A
O112       Cu119   2.034   1_545  S
O112        C122   1.280   1_545  A
O113       Cu119   2.038   1_545  S
O113        C123   1.281   1_545  A
O114       Cu119   2.020       .  S
O114        C124   1.278       .  A
O115       Cu120   2.028       .  S
O115        C124   1.279       .  A
O116       Cu120   2.008       .  S
O116        C123   1.276       .  A
O117       Cu120   2.018       .  S
O117        C122   1.278       .  A
O118       Cu120   2.034       .  S
O118        C121   1.280       .  A
Cu119      Cu120   2.374       .  S
N125        N126   1.324   1_655  A
N125        C129   1.348       .  A
N125       Cu133   2.093       .  S
N126        C127   1.348       .  A
N126       Cu420   2.087       .  S
C127        C128   1.384   1_455  A
C127        H130   1.082       .  S
C128        C129   1.386       .  A
C128        C186   1.474       .  S
C129        H131   1.082       .  S
Cu132       N135   2.088       .  S
Cu132       N414   2.087       .  S
Cu133       N143   2.093       .  S
Cu134       N136   2.081       .  S
Cu134       N142   2.081       .  S
N135        N136   1.323   1_455  A
N135        C139   1.348       .  A
N136        C137   1.347       .  A
C137        C138   1.383       .  A
C137        H140   1.082       .  S
C138        C139   1.385   1_655  A
C138        C183   1.472       .  S
C139        H141   1.082       .  S
N142        N431   1.321       .  A
N142        C146   1.346       .  A
N143        N430   1.321   1_554  A
N143        C144   1.348       .  A
C144        C433   1.393       .  A
C144        H147   1.077       .  S
C145        C146   1.390       .  A
C145        C432   1.394       .  A
C145        C210   1.500       .  S
C146        H148   1.082       .  S
N149        N150   1.324       .  A
N149        C153   1.348       .  A
N149       Cu157   2.095       .  S
N150        C151   1.348       .  A
N150       Cu156   2.084       .  S
C151        C152   1.383       .  A
C151        H154   1.082       .  S
C152        C153   1.387       .  A
C152        C184   1.475       .  S
C153        H155   1.082       .  S
Cu156       N447   2.084   1_554  S
Cu157       N167   2.094       .  S
Cu158       N160   2.074       .  S
Cu158       N166   2.074       .  S
N159        N160   1.323       .  A
N159        C163   1.347       .  A
N159       Cu444   2.084       .  S
N160        C161   1.346       .  A
C161        C162   1.382       .  A
C161        H164   1.082       .  S
C162        C163   1.384       .  A
C162        C185   1.468       .  S
C163        H165   1.082       .  S
N166        N455   1.319       .  A
N166        C170   1.344       .  A
N167        N454   1.319   1_554  A
N167        C168   1.347       .  A
C168        C169   1.397       .  A
C168        H171   1.075       .  S
C169        C458   1.392   1_554  A
C169        C194   1.507       .  S
C170        C457   1.392       .  A
C170        H172   1.081       .  S
O173       Cu181   2.026   1_455  S
O173        C183   1.279   1_455  A
O174       Cu181   2.008       .  S
O174        C184   1.276       .  A
O175       Cu181   2.013       .  S
O175        C185   1.277       .  A
O176       Cu181   2.036   1_455  S
O176        C186   1.281   1_455  A
O177       Cu182   2.004       .  S
O177        C186   1.276       .  A
O178       Cu182   2.019       .  S
O178        C185   1.278       .  A
O179       Cu182   2.035       .  S
O179        C184   1.281       .  A
O180       Cu182   2.014       .  S
O180        C183   1.278       .  A
Cu181      Cu182   2.375       .  S
C187        C188   1.429   1_455  A
C187        C192   1.424   1_545  A
C187        C274   1.504       .  S
C188        C189   1.428   1_545  A
C188        C213   1.504       .  S
C189        C190   1.424       .  A
C189        C242   1.503       .  S
C190        C191   1.419       .  A
C190        C261   1.505       .  S
C191        C192   1.420   1_655  A
C191        C197   1.494       .  S
C192        C226   1.505       .  S
C193        C198   1.405       .  A
C193        C482   1.413       .  A
C193        H200   1.082       .  S
C194        C195   1.425       .  A
C194        C481   1.413   1_554  A
C195        C196   1.406       .  A
C195        C202   1.505       .  S
C196        C197   1.399   1_554  A
C196        H201   1.084       .  S
C197        C486   1.410       .  A
C198        C485   1.410       .  A
C198        C199   1.506       .  S
C199        H203   1.111       .  S
C199        H205   1.107       .  S
C199        H492   1.110   1_655  S
C202        H206   1.108       .  S
C202        H208   1.111       .  S
C202        H495   1.110       .  S
H204        C487   1.110   1_455  S
H207        C490   1.110       .  S
C209        C210   1.410       .  A
C209        C214   1.407       .  A
C209        H216   1.084       .  S
C210        C499   1.420       .  A
C211        C212   1.404       .  A
C211        C498   1.420       .  A
C211        C218   1.506   1_655  S
C212        C213   1.404   1_554  A
C212        H217   1.084       .  S
C213        C502   1.416       .  A
C214        C501   1.416       .  A
C214        C215   1.507       .  S
C215        H219   1.110       .  S
C215        H220   1.110       .  S
C215        H221   1.107       .  S
C218        H222   1.107   1_455  S
C218        H223   1.110       .  S
C218        H224   1.111       .  S
C225        C226   1.402   1_554  A
C225        C230   1.409       .  A
C225        H232   1.084       .  S
C226        C515   1.414       .  A
C227        C228   1.407       .  A
C227        C514   1.414       .  A
C227        C234   1.505       .  S
C228        C229   1.410       .  A
C228        H233   1.083       .  S
C229        C518   1.423       .  A
C230        C517   1.423   1_554  A
C230        C231   1.505       .  S
C231        H235   1.111       .  S
C231        H236   1.107       .  S
C231        H525   1.110       .  S
C234        H239   1.106       .  S
C234        H240   1.110       .  S
C234        H526   1.110   1_565  S
H237        C519   1.110       .  S
H238        C522   1.110   1_545  S
C241        C246   1.405       .  A
C241        C530   1.404       .  A
C241        H248   1.084       .  S
C242        C243   1.417   1_556  A
C242        C529   1.404       .  A
C243        C244   1.407       .  A
C243        C250   1.506       .  S
C244        C245   1.407   1_554  A
C244        H249   1.084       .  S
C245        C534   1.421       .  A
C246        C533   1.421       .  A
C246        C247   1.507       .  S
C247        H251   1.111       .  S
C247        H252   1.106       .  S
C247        H541   1.110       .  S
C250        H255   1.107       .  S
C250        H256   1.110       .  S
C250        H542   1.110   1_565  S
H253        C535   1.110       .  S
H254        C538   1.110   1_545  S
C257        C258   1.409   1_554  A
C257        C262   1.406       .  A
C257        H264   1.083       .  S
C258        C547   1.426       .  A
C259        C260   1.410       .  A
C259        C546   1.426       .  A
C259        C266   1.506       .  S
C260        C549   1.402       .  A
C260        H265   1.084       .  S
C261        C262   1.413   1_556  A
C261        C548   1.401       .  A
C262        C263   1.505       .  S
C263        H267   1.110       .  S
C263        H269   1.107       .  S
C263        H556   1.109       .  S
C266        H270   1.107       .  S
C266        H272   1.111       .  S
C266        H559   1.110       .  S
H268        C551   1.109       .  S
H271        C554   1.110       .  S
C273        C274   1.402   1_554  A
C273        C278   1.407       .  A
C273        H280   1.084       .  S
C274        C563   1.415       .  A
C275        C276   1.407       .  A
C275        C562   1.415       .  A
C275        C282   1.506       .  S
C276        C565   1.410       .  A
C276        H281   1.083       .  S
C277        C278   1.422   1_556  A
C277        C564   1.410       .  A
C278        C279   1.505       .  S
C279        H283   1.111       .  S
C279        H284   1.107       .  S
C279        H573   1.110       .  S
C282        H287   1.107       .  S
C282        H288   1.110       .  S
C282        H574   1.110       .  S
H285        C567   1.110       .  S
H286        C570   1.110       .  S
N289        N290   1.323       .  A
N289        C293   1.348       .  A
N289       Cu297   2.088       .  S
N290        C291   1.346       .  A
C291        C292   1.382       .  A
C291        H294   1.082       .  S
C292        C293   1.386       .  A
C292        C350   1.470       .  S
C293        H295   1.082       .  S
Cu296       N299   2.077       .  S
Cu297       N307   2.088       .  S
Cu298       N300   2.096       .  S
Cu298       N306   2.096       .  S
N299        N300   1.323       .  A
N299        C303   1.346       .  A
N300        C301   1.350       .  A
C301        C302   1.388       .  A
C301        H304   1.082       .  S
C302        C303   1.381       .  A
C302        C347   1.474       .  S
C303        H305   1.082       .  S
N306        C310   1.347       .  A
N307        C308   1.347       .  A
C308        H311   1.082       .  S
C309        C310   1.394       .  A
C309        C565   1.504       .  S
C310        H312   1.077       .  S
N313        N314   1.323       .  A
N313        C317   1.348       .  A
N313       Cu321   2.088       .  S
N314        C315   1.348       .  A
C315        C316   1.384       .  A
C315        H318   1.082       .  S
C316        C317   1.386       .  A
C316        C348   1.475       .  S
C317        H319   1.082       .  S
Cu320       N323   2.084       .  S
Cu321       N331   2.089       .  S
Cu322       N324   2.101       .  S
Cu322       N330   2.101       .  S
N323        N324   1.324       .  A
N323        C327   1.346       .  A
N324        C325   1.351       .  A
C325        C326   1.388       .  A
C325        H328   1.082       .  S
C326        C327   1.382       .  A
C326        C349   1.475       .  S
C327        H329   1.082       .  S
N330        C334   1.349       .  A
N331        C332   1.346       .  A
C332        H335   1.077       .  S
C333        C334   1.396       .  A
C333        C546   1.508       .  S
C334        H336   1.082       .  S
O337       Cu345   2.029       .  S
O337        C347   1.280       .  A
O338       Cu345   2.011       .  S
O338        C348   1.277       .  A
O339       Cu345   2.020       .  S
O339        C349   1.278       .  A
O340       Cu345   2.032       .  S
O340        C350   1.280       .  A
O341       Cu346   2.004       .  S
O341        C350   1.275       .  A
O342       Cu346   2.028       .  S
O342        C349   1.280       .  A
O343       Cu346   2.034       .  S
O343        C348   1.281       .  A
O344       Cu346   2.017       .  S
O344        C347   1.277       .  A
Cu345      Cu346   2.374       .  S
N351        N352   1.322       .  A
N351        C355   1.347       .  A
N351       Cu359   2.081       .  S
N352        C353   1.349       .  A
C353        C354   1.386       .  A
C353        H356   1.082       .  S
C354        C355   1.384       .  A
C354        C409   1.474       .  S
C355        H357   1.082       .  S
Cu358       N361   2.089       .  S
Cu359       N369   2.080       .  S
Cu360       N362   2.097       .  S
Cu360       N368   2.096       .  S
N361        N362   1.325       .  A
N361        C365   1.347       .  A
N362        C363   1.350       .  A
C363        C364   1.386       .  A
C363        H366   1.082       .  S
C364        C365   1.383       .  A
C364        C412   1.476       .  S
C365        H367   1.082       .  S
N368        C372   1.349       .  A
N369        C370   1.344       .  A
C370        H373   1.078       .  S
C371        C372   1.393       .  A
C371        C533   1.499       .  S
C372        H374   1.082       .  S
N375        N376   1.324   1_565  A
N375        C379   1.347       .  A
N375       Cu383   2.090       .  S
N376        C377   1.349       .  A
N376       Cu382   2.091   1_556  S
C377        C378   1.386   1_545  A
C377        H380   1.082       .  S
C378        C379   1.385       .  A
C378        C411   1.476       .  S
C379        H381   1.082       .  S
Cu383       N393   2.089       .  S
Cu384       N386   2.097   1_565  S
Cu384       N392   2.097       .  S
N385        N386   1.324       .  A
N385        C389   1.349       .  A
N386        C387   1.349   1_545  A
C387        C388   1.386   1_565  A
C387        H390   1.082       .  S
C388        C389   1.385       .  A
C388        C410   1.477   1_545  S
C389        H391   1.082       .  S
N392        C396   1.348       .  A
N393        C394   1.347       .  A
C394        C395   1.393   1_556  A
C394        H397   1.082       .  S
C395        C517   1.508   1_554  S
C396        H398   1.078       .  S
O399       Cu407   2.009       .  S
O399        C409   1.277       .  A
O400       Cu407   2.034   1_545  S
O400        C410   1.280   1_545  A
O401       Cu407   2.038   1_545  S
O401        C411   1.281   1_545  A
O402       Cu407   2.020       .  S
O402        C412   1.278       .  A
O403       Cu408   2.028       .  S
O403        C412   1.279       .  A
O404       Cu408   2.008       .  S
O404        C411   1.276       .  A
O405       Cu408   2.018       .  S
O405        C410   1.278       .  A
O406       Cu408   2.034       .  S
O406        C409   1.280       .  A
Cu407      Cu408   2.374       .  S
N413        N414   1.324   1_655  A
N413        C417   1.348       .  A
N413       Cu421   2.093       .  S
N414        C415   1.348       .  A
C415        C416   1.384   1_455  A
C415        H418   1.082       .  S
C416        C417   1.386       .  A
C416        C474   1.474       .  S
C417        H419   1.082       .  S
Cu420       N423   2.088   1_554  S
Cu421       N431   2.093       .  S
Cu422       N424   2.081       .  S
Cu422       N430   2.081       .  S
N423        N424   1.323   1_455  A
N423        C427   1.348       .  A
N424        C425   1.347       .  A
C425        C426   1.383       .  A
C425        H428   1.082       .  S
C426        C427   1.385   1_655  A
C426        C471   1.472       .  S
C427        H429   1.082       .  S
N430        C434   1.346       .  A
N431        C432   1.348       .  A
C432        H435   1.077       .  S
C433        C434   1.390   1_554  A
C433        C498   1.500       .  S
C434        H436   1.082       .  S
N437        N438   1.324       .  A
N437        C441   1.348       .  A
N437       Cu445   2.095       .  S
N438        C439   1.348       .  A
N438       Cu444   2.084       .  S
C439        C440   1.383       .  A
C439        H442   1.082       .  S
C440        C441   1.387       .  A
C440        C472   1.475       .  S
C441        H443   1.082       .  S
Cu445       N455   2.094       .  S
Cu446       N448   2.074       .  S
Cu446       N454   2.074       .  S
N447        N448   1.323       .  A
N447        C451   1.347       .  A
N448        C449   1.346       .  A
C449        C450   1.382       .  A
C449        H452   1.082       .  S
C450        C451   1.384       .  A
C450        C473   1.468       .  S
C451        H453   1.082       .  S
N454        C458   1.344       .  A
N455        C456   1.347       .  A
C456        C457   1.397       .  A
C456        H459   1.075       .  S
C457        C482   1.506       .  S
C458        H460   1.081       .  S
O461       Cu469   2.026   1_455  S
O461        C471   1.279   1_455  A
O462       Cu469   2.008       .  S
O462        C472   1.276       .  A
O463       Cu469   2.013       .  S
O463        C473   1.277       .  A
O464       Cu469   2.036   1_455  S
O464        C474   1.281   1_455  A
O465       Cu470   2.004       .  S
O465        C474   1.276       .  A
O466       Cu470   2.019       .  S
O466        C473   1.278       .  A
O467       Cu470   2.035       .  S
O467        C472   1.281       .  A
O468       Cu470   2.014       .  S
O468        C471   1.278       .  A
Cu469      Cu470   2.375       .  S
C475        C476   1.429   1_455  A
C475        C480   1.424   1_545  A
C475        C562   1.504       .  S
C476        C477   1.428   1_545  A
C476        C501   1.504       .  S
C477        C478   1.424       .  A
C477        C530   1.503       .  S
C478        C479   1.419       .  A
C478        C549   1.505       .  S
C479        C480   1.420   1_655  A
C479        C485   1.494       .  S
C480        C514   1.505       .  S
C481        C486   1.405       .  A
C481        H488   1.082       .  S
C482        C483   1.425       .  A
C483        C484   1.406       .  A
C483        C490   1.505       .  S
C484        C485   1.399       .  A
C484        H489   1.084       .  S
C486        C487   1.506       .  S
C487        H491   1.111       .  S
C487        H493   1.107       .  S
C490        H494   1.108       .  S
C490        H496   1.111       .  S
C497        C498   1.410   1_556  A
C497        C502   1.407       .  A
C497        H504   1.084       .  S
C499        C500   1.404       .  A
C499        C506   1.506   1_655  S
C500        C501   1.404       .  A
C500        H505   1.084       .  S
C502        C503   1.507       .  S
C503        H507   1.110       .  S
C503        H508   1.110       .  S
C503        H509   1.107       .  S
C506        H510   1.107   1_455  S
C506        H511   1.110       .  S
C506        H512   1.111       .  S
C513        C514   1.402       .  A
C513        C518   1.409       .  A
C513        H520   1.084       .  S
C515        C516   1.407       .  A
C515        C522   1.505       .  S
C516        C517   1.410       .  A
C516        H521   1.083       .  S
C518        C519   1.505       .  S
C519        H523   1.111       .  S
C519        H524   1.107       .  S
C522        H527   1.106       .  S
C522        H528   1.110       .  S
C529        C534   1.405       .  A
C529        H536   1.084       .  S
C530        C531   1.417       .  A
C531        C532   1.407       .  A
C531        C538   1.506       .  S
C532        C533   1.407       .  A
C532        H537   1.084       .  S
C534        C535   1.507       .  S
C535        H539   1.111       .  S
C535        H540   1.106       .  S
C538        H543   1.107       .  S
C538        H544   1.110       .  S
C545        C546   1.409       .  A
C545        C550   1.406       .  A
C545        H552   1.083       .  S
C547        C548   1.410       .  A
C547        C554   1.506       .  S
C548        H553   1.084       .  S
C549        C550   1.413       .  A
C550        C551   1.505       .  S
C551        H555   1.110       .  S
C551        H557   1.107       .  S
C554        H558   1.107       .  S
C554        H560   1.111       .  S
C561        C562   1.402       .  A
C561        C566   1.407       .  A
C561        H568   1.084       .  S
C563        C564   1.407       .  A
C563        C570   1.506       .  S
C564        H569   1.083       .  S
C565        C566   1.422       .  A
C566        C567   1.505       .  S
C567        H571   1.111       .  S
C567        H572   1.107       .  S
C570        H575   1.107       .  S
C570        H576   1.110       .  S
