geometry optimzed in LAMMPS
_audit_creation_date              2020-11-30 
_audit_creation_method            'lammps2cif' 
_symmetry_space_group_name_H-M    'P1' 
_symmetry_Int_Tables_number       1 
_symmetry_cell_setting            triclinic 
loop_ 
_symmetry_equiv_pos_as_xyz 
  x,y,z 
_cell_length_a                    36.61227447 
_cell_length_b                    36.985907291845066 
_cell_length_c                    53.525175969465195 
_cell_angle_alpha                 89.82474526335729 
_cell_angle_beta                  90.14656810523144 
_cell_angle_gamma                 121.07489409650115 
loop_ 
_atom_site_label 
_atom_site_type_symbol 
_atom_site_fract_x 
_atom_site_fract_y 
_atom_site_fract_z 
_atom_site_charge 
C1          C  0.00780768  0.00501110  0.77446886     0.46100
H2          H  0.00998956  0.00372228  0.79508675    -0.02900
C3          C  0.00618884  0.52069690  0.72438568     0.46200
H4          H  0.00184959  0.51837621  0.70377314    -0.02900
C5          C  0.46850628  0.47206779  0.76174330    -0.16600
C6          C  0.00326659  0.04192270  0.76467331    -0.16400
C7          C  0.04712928  0.00994422  0.76105212    -0.16700
C8          C  0.46452370  0.47152668  0.73626146    -0.16700
C9          C  0.99858201  0.04113640  0.73911897    -0.16300
C10         C  0.04292451  0.00895451  0.73551650    -0.16600
O11         O  0.23008200  0.10448535  0.96690307    -0.77800
C12         C  0.23880899  0.18019484  0.03662852     0.83200
O13         O  0.34434878  0.26008151  0.96887329    -0.79000
O14         O  0.37766610  0.21528189  0.04901505    -0.80400
O15         O  0.31200789  0.08201880  0.01548158    -0.80200
O16         O  0.28070327  0.08887747  0.96068585    -0.78900
Zn17       Zn  0.26368818  0.16197504  0.98557555     1.55700
O18         O  0.30302334  0.11177057  0.04931446    -0.80300
Cd19       Cd  0.32479966  0.12457715  0.98711413     1.59700
Cd20       Cd  0.36571742  0.22452459  0.98680296     1.59600
O21         O  0.38472086  0.14780096  0.97238548    -0.80300
O22         O  0.31669795  0.17043404  0.99881210    -1.90800
Cd23       Cd  0.31703896  0.17047924  0.03603947     1.59900
O24         O  0.40301423  0.21405417  0.96319692    -0.80200
O25         O  0.27074467  0.18295818  0.04817331    -0.78900
C26         C  0.30722551  0.24846730  0.96045427     0.83700
C27         C  0.24287952  0.08099860  0.95762738     0.83300
O28         O  0.23095670  0.16922480  0.01372926    -0.77800
C29         C  0.30286982  0.08099493  0.03849494     0.84100
O30         O  0.27543915  0.21119498  0.96357279    -0.77900
C31         C  0.40975455  0.18363368  0.96251886     0.84300
C32         C  0.40995363  0.24586561  0.03819151     0.84600
O33         O  0.40897767  0.25530556  0.01538351    -0.80300
C34         C  0.31270054  0.32908018  0.91686017     0.80900
N35         N  0.32013056  0.29987666  0.92733032    -0.77400
C36         C  0.29954602  0.27959903  0.94856880     0.83300
N37         N  0.27122439  0.28816346  0.95910350    -0.77400
C38         C  0.26445297  0.31793537  0.94909775     0.83400
N39         N  0.28503141  0.33826833  0.92788491    -0.79100
O40         O  0.15629260  0.25303489  0.01484897    -0.77800
C41         C  0.06432346  0.25961971  0.96238696     0.83200
O42         O  0.24607410  0.36335842  0.96929529    -0.79000
O43         O  0.13238610  0.40250194  0.96797387    -0.80400
O44         O  0.09393483  0.32265184  0.04889052    -0.80200
O45         O  0.16494156  0.28852174  0.05010995    -0.78900
Zn46       Zn  0.14861688  0.28518637  0.98724802     1.55700
O47         O  0.06753791  0.33706879  0.01513248    -0.80300
Cd48       Cd  0.15423605  0.33591214  0.03716336     1.59700
Cd49       Cd  0.21039112  0.38476990  0.98722905     1.59600
O50         O  0.20172722  0.39501567  0.05050609    -0.80300
O51         O  0.15562658  0.33720263  0.99972529    -1.90800
Cd52       Cd  0.10937664  0.34552686  0.98702646     1.59900
O53         O  0.24183035  0.42483901  0.01648490    -0.80200
O54         O  0.06935418  0.29606753  0.96483822    -0.78900
C55         C  0.23389318  0.32645044  0.96111699     0.83700
C56         C  0.16440532  0.25842251  0.03810958     0.83300
O57         O  0.09132299  0.25031939  0.97036464    -0.77800
C58         C  0.06426690  0.32497013  0.03772275     0.84100
O59         O  0.19630006  0.29536740  0.96458193    -0.77900
C60         C  0.23347717  0.42594983  0.03946362     0.84300
C61         C  0.16968402  0.42820272  0.95964139     0.84600
O62         O  0.20115081  0.42328764  0.96354401    -0.80300
C63         C  0.17464009  0.19135553  0.08589753     0.80900
N64         N  0.19915702  0.17945241  0.07362286    -0.77400
C65         C  0.21129844  0.19201297  0.04973628     0.83300
N66         N  0.19896129  0.21679506  0.03820789    -0.77400
C67         C  0.17573429  0.23014361  0.05071628     0.83400
N68         N  0.16345264  0.21723819  0.07460569    -0.79100
C69         C  0.18141875  0.99737878  0.91056356     0.80900
N70         N  0.20333688  0.03649222  0.92129009    -0.77400
C71         C  0.21308840  0.04016081  0.94610719     0.83300
N72         N  0.20261519  0.00500286  0.95963667    -0.77400
C73         C  0.17821403  0.46653052  0.94657312     0.83400
N74         N  0.16801196  0.46554746  0.92214165    -0.79100
C75         C  0.48800177  0.29399369  0.08983953     0.80900
N76         N  0.45056022  0.27348902  0.07709688    -0.77400
C77         C  0.45047172  0.26955212  0.05193604     0.83300
N78         N  0.48819899  0.28594990  0.03958053    -0.77400
C79         C  0.02379231  0.31106998  0.05065861     0.83400
N80         N  0.02339203  0.31843487  0.07537119    -0.79100
C81         C  0.98685955  0.18106095  0.91842587     0.80900
N82         N  0.44698165  0.17200098  0.92902411    -0.77400
C83         C  0.44861056  0.19112319  0.95077109     0.83300
N84         N  0.98726100  0.21671763  0.96251069    -0.77400
C85         C  0.02462617  0.22707025  0.95138318     0.83400
N86         N  0.02447321  0.20951622  0.92926659    -0.79100
C87         C  0.29791002  0.50493040  0.08807365     0.80900
N88         N  0.27305071  0.46711429  0.07653984    -0.77400
C89         C  0.26001450  0.46594907  0.05263799     0.83300
N90         N  0.27222291  0.50258872  0.04030074    -0.77400
C91         C  0.29118088  0.04262726  0.05270001     0.83400
N92         N  0.30172926  0.04496481  0.07712977    -0.79100
O93         O  0.25657310  0.16092696  0.48190110    -0.77800
C94         C  0.26816767  0.07185851  0.53682755     0.83200
O95         O  0.36484104  0.25190228  0.52708123    -0.79000
O96         O  0.41445139  0.14681645  0.52540403    -0.80400
O97         O  0.32953290  0.10371746  0.44759808    -0.80200
O98         O  0.29577231  0.17497787  0.44725990    -0.78900
Zn99       Zn  0.28843215  0.15327156  0.51023922     1.55700
O100        O  0.34446437  0.07836842  0.48154597    -0.80300
Cd101      Cd  0.34248748  0.16273909  0.46023558     1.59700
Cd102      Cd  0.38783111  0.21744919  0.51027147     1.59600
O103        O  0.40388786  0.20867384  0.44873013    -0.80300
O104        O  0.34164063  0.16271759  0.49754663    -1.90800
Cd105      Cd  0.35349187  0.11942432  0.50978409     1.59900
O106        O  0.43203758  0.24840639  0.48288778    -0.80200
O107        O  0.30613378  0.07965803  0.53408500    -0.78900
C108        C  0.32805760  0.23801205  0.53654893     0.83700
C109        C  0.26392613  0.17199703  0.45899376     0.83300
O110        O  0.25574647  0.09589066  0.52793315    -0.77800
C111        C  0.33266051  0.07491295  0.45886816     0.84100
O112        O  0.29766684  0.20002904  0.53360119    -0.77900
C113        C  0.43489374  0.23938514  0.46035733     0.84300
C114        C  0.43591409  0.18264368  0.53610714     0.84600
O115        O  0.42465636  0.20982650  0.53565056    -0.80300
C116        C  0.32458582  0.30274117  0.58773846     0.80900
N117        N  0.33409988  0.27758219  0.57431418    -0.77400
C118        C  0.31967316  0.26667446  0.55061561     0.83300
N119        N  0.29599037  0.28125144  0.54017836    -0.77400
C120        C  0.28603545  0.30630625  0.55336036     0.83400
N121        N  0.29979789  0.31656129  0.57738118    -0.79100
O122        O  0.27163970  0.39593342  0.47135129    -0.77800
C123        C  0.26000570  0.32099746  0.54101218     0.83200
O124        O  0.15607543  0.24142343  0.47048894    -0.79000
O125        O  0.12330641  0.28818164  0.55164464    -0.80400
O126        O  0.18197661  0.41721719  0.51541415    -0.80200
O127        O  0.22340200  0.41482494  0.46483639    -0.78900
Zn128      Zn  0.23611336  0.33842693  0.48912769     1.55700
O129        O  0.19650291  0.39330597  0.55018684    -0.80300
Cd130      Cd  0.17420898  0.37584334  0.48770386     1.59700
Cd131      Cd  0.13470489  0.27614221  0.48943046     1.59600
O132        O  0.11609453  0.35257005  0.46938962    -0.80300
O133        O  0.18303106  0.33099982  0.50125758    -1.90800
Cd134      Cd  0.18369205  0.33364666  0.53878574     1.59900
O135        O  0.09335077  0.28389732  0.46713589    -0.80200
O136        O  0.22973321  0.32116614  0.55274018    -0.78900
C137        C  0.19340842  0.25310020  0.46251552     0.83700
C138        C  0.26079090  0.42121157  0.46243825     0.83300
O139        O  0.26668997  0.32995729  0.51782079    -0.77800
C140        C  0.19326893  0.42149320  0.53821547     0.84100
O141        O  0.22529393  0.28990683  0.46669175    -0.77900
C142        C  0.08871753  0.31507846  0.46262091     0.84300
C143        C  0.09273794  0.25548811  0.54117333     0.84600
O144        O  0.09492135  0.24480777  0.51888154    -0.80300
C145        C  0.19376836  0.99467683  0.58335719     0.80900
N146        N  0.21960442  0.03189347  0.57132457    -0.77400
C147        C  0.23772142  0.03220669  0.54921407     0.83300
N148        N  0.22936552  0.99524923  0.53892251    -0.77400
C149        C  0.20462938  0.46153874  0.55013322     0.83400
N150        N  0.18725055  0.46246970  0.57226327    -0.79100
C151        C  0.01167303  0.20142939  0.59065227     0.80900
N152        N  0.47178255  0.18969763  0.57509270    -0.77400
C153        C  0.47436810  0.19365634  0.55005879     0.83300
N154        N  0.01518750  0.21638126  0.54093389    -0.77400
C155        C  0.05191386  0.23073162  0.55412448     0.83400
N156        N  0.05015642  0.22334290  0.57907450    -0.79100
C157        C  0.51633236  0.30263505  0.41304349     0.80900
N158        N  0.04988443  0.32389768  0.42803442    -0.77400
C159        C  0.04919654  0.30644142  0.45046416     0.83300
N160        N  0.51283182  0.27669947  0.46072397    -0.77400
C161        C  0.47612435  0.26475473  0.44797845     0.83400
N162        N  0.47799753  0.27741385  0.42407288    -0.79100
C163        C  0.18857169  0.17813225  0.41495457     0.80900
N164        N  0.21674775  0.16809519  0.42462864    -0.77400
C165        C  0.23611705  0.18465569  0.44687916     0.83300
N166        N  0.22810205  0.21204669  0.45899957    -0.77400
C167        C  0.20082244  0.22284778  0.44921919     0.83400
N168        N  0.18078001  0.20553573  0.42732626    -0.79100
C169        C  0.32473339  0.49522366  0.41231945     0.80900
N170        N  0.32852415  0.03390062  0.42169990    -0.77400
C171        C  0.32023286  0.03503714  0.44627464     0.83300
N172        N  0.30309139  0.49786103  0.46023509    -0.77400
C173        C  0.29165219  0.46012527  0.44964143     0.83400
N174        N  0.30229145  0.45889248  0.42561028    -0.79100
C175        C  0.50212474  0.48568328  0.22443307     0.46100
H176        H  0.50661563  0.48670866  0.20395018    -0.02900
C177        C  0.98963417  0.49421585  0.27290462     0.46200
H178        H  0.98687703  0.49548817  0.29352863    -0.02900
C179        C  0.02764873  0.02084632  0.23679935    -0.16600
C180        C  0.46078290  0.48413468  0.23197847    -0.16400
C181        C  0.50024807  0.44754714  0.23767922    -0.16700
C182        C  0.02356101  0.02104303  0.26238390    -0.16700
C183        C  0.45610672  0.48434917  0.25747192    -0.16300
C184        C  0.49748954  0.44924993  0.26317510    -0.16600
C185        C  0.37868537  0.48141372  0.35638574    -0.11200
C186        C  0.35634752  0.00082449  0.33540733     0.11400
C187        C  0.32570938  0.01192357  0.34092842    -0.03000
C188        C  0.31309421  0.00975914  0.36594705    -0.05800
C189        C  0.33741609  0.49372900  0.38659690    -0.16500
C190        C  0.36681954  0.48085917  0.38126767     0.02400
C191        C  0.37524325  0.00591195  0.31050489     0.12300
C192        C  0.30722777  0.02633477  0.32053051     0.62900
H193        H  0.29068698  0.01934382  0.37099230     0.12400
C194        C  0.38679154  0.46818966  0.40181732     0.55100
H195        H  0.40162281  0.47229446  0.35174054     0.08100
C196        C  0.41611295  0.04081980  0.30509823    -0.05700
C197        C  0.43944415  0.03707619  0.28576374    -0.06400
C198        C  0.42507090  0.49135106  0.27140966    -0.16000
C199        C  0.38165603  0.45976380  0.27533020    -0.01600
C200        C  0.36031642  0.46392809  0.29596384    -0.09100
C201        C  0.43853124  0.08093852  0.32058777     0.65200
H202        H  0.47187437  0.06256356  0.28289942     0.10600
C203        C  0.35841479  0.42084463  0.25908653     0.63600
H204        H  0.32845244  0.43876957  0.30077931     0.08000
F205        F  0.41790853  0.46114353  0.39263762    -0.19500
F206        F  0.35586869  0.43141256  0.41317387    -0.15700
F207        F  0.40556456  0.49995128  0.41946142    -0.19200
F208        F  0.28747950  0.99493710  0.30276183    -0.22600
F209        F  0.33936480  0.06246225  0.30922796    -0.24100
F210        F  0.27736690  0.03508048  0.32983916    -0.18100
F211        F  0.35551627  0.43223903  0.23494843    -0.20500
F212        F  0.31733727  0.39336766  0.26743753    -0.21700
F213        F  0.37990254  0.39949262  0.25923264    -0.18900
F214        F  0.45433503  0.11561637  0.30490800    -0.19000
F215        F  0.47222019  0.08239086  0.33328504    -0.22800
F216        F  0.41218110  0.08399866  0.33777153    -0.24400
C217        C  0.10245897  0.11679635  0.36633958    -0.11200
C218        C  0.12732215  0.12015513  0.34561488     0.11400
C219        C  0.17226667  0.14491614  0.34709492    -0.03000
C220        C  0.19113950  0.16320716  0.37019223    -0.05800
C221        C  0.16630579  0.15901215  0.39119497    -0.16500
C222        C  0.12115775  0.13613899  0.38921813     0.02400
C223        C  0.10492288  0.09633252  0.32282678     0.12300
C224        C  0.19984452  0.15243864  0.32425207     0.62900
H225        H  0.22554114  0.18145844  0.37197697     0.12400
C226        C  0.09271986  0.13111152  0.41122403     0.55100
H227        H  0.06807369  0.09838301  0.36442530     0.08100
C228        C  0.09141161  0.05323892  0.32027401    -0.05700
C229        C  0.06773698  0.03175072  0.29909648    -0.06400
C230        C  0.05507230  0.05089835  0.28103071    -0.16000
C231        C  0.06849847  0.09428062  0.28376304    -0.01600
C232        C  0.09429417  0.11642569  0.30442648    -0.09100
C233        C  0.10035848  0.02947562  0.34029165     0.65200
H234        H  0.05741246  0.99877302  0.29692724     0.10600
C235        C  0.05649146  0.11860997  0.26609851     0.63600
H236        H  0.10499325  0.14952796  0.30687596     0.08000
F237        F  0.10335887  0.11547832  0.43169990    -0.19500
F238        F  0.05002443  0.10352862  0.40593940    -0.15700
F239        F  0.09763827  0.16973279  0.41716887    -0.19200
F240        F  0.18983932  0.17234936  0.30591910    -0.22600
F241        F  0.19285171  0.11452266  0.31501762    -0.24100
F242        F  0.24282871  0.17771696  0.32968338    -0.18100
F243        F  0.01910407  0.09280021  0.25349181    -0.20500
F244        F  0.08909304  0.14037783  0.24908841    -0.21700
F245        F  0.05059996  0.14741753  0.27921531    -0.18900
F246        F  0.08613195  0.98824195  0.33332684    -0.19000
F247        F  0.07981488  0.02832827  0.36217094    -0.22800
F248        F  0.14364334  0.04921846  0.34482272    -0.24400
C249        C  0.52833317  0.37851535  0.36249027    -0.11200
C250        C  0.50489899  0.35033043  0.34328477     0.11400
C251        C  0.98281334  0.31969509  0.35027469    -0.03000
C252        C  0.98868823  0.30467599  0.37307922    -0.05800
C253        C  0.51743420  0.32039713  0.38848611    -0.16500
C254        C  0.53451722  0.36423418  0.38538633     0.02400
C255        C  0.49794911  0.36863074  0.32074840     0.12300
C256        C  0.95929973  0.28935667  0.32894133     0.62900
H257        H  0.97496858  0.27109179  0.37595022     0.12400
C258        C  0.55709563  0.39550138  0.40649213     0.55100
H259        H  0.54054303  0.41185211  0.35956540     0.08100
C260        C  0.46626444  0.37955310  0.31999452    -0.05700
C261        C  0.46664862  0.40417317  0.30001414    -0.06400
C262        C  0.49901262  0.42030529  0.28186588    -0.16000
C263        C  0.02818785  0.41827418  0.28569737    -0.01600
C264        C  0.02549015  0.39329204  0.30614430    -0.09100
C265        C  0.43333132  0.36683671  0.34066847     0.65200
H266        H  0.44206215  0.41211342  0.29875327     0.10600
C267        C  0.06681807  0.43318924  0.26908108     0.63600
H268        H  0.04957413  0.38483532  0.30867070     0.08000
F269        F  0.56776032  0.43602147  0.39988968    -0.19500
F270        F  0.09371426  0.40697824  0.41410615    -0.15700
F271        F  0.53083734  0.38368539  0.42722068    -0.19200
F272        F  0.98639873  0.29937327  0.30877202    -0.22600
F273        F  0.43054647  0.27554588  0.31799697    -0.24100
F274        F  0.94476526  0.24792577  0.33565107    -0.18100
F275        F  0.10291728  0.44634866  0.28356276    -0.20500
F276        F  0.06873552  0.96167450  0.25187593    -0.21700
F277        F  0.06095587  0.40017968  0.25413069    -0.18900
F278        F  0.40467002  0.37974752  0.33559829    -0.19000
F279        F  0.45335667  0.38503992  0.36299769    -0.22800
F280        F  0.41048063  0.32349871  0.34345148    -0.24400
C281        C  0.39862759  0.47221312  0.17222517    -0.11200
C282        C  0.38472169  0.01460477  0.17741840     0.11400
C283        C  0.39361262  0.03529009  0.20067512    -0.03000
C284        C  0.41945065  0.02949548  0.21777605    -0.05800
C285        C  0.43357785  0.48840503  0.21277035    -0.16500
C286        C  0.41880857  0.46252038  0.19106421     0.02400
C287        C  0.36030551  0.02020345  0.15733339     0.12300
C288        C  0.37476043  0.06205441  0.20762127     0.62900
H289        H  0.42987735  0.04830339  0.23456600     0.12400
C290        C  0.42161905  0.42330340  0.18759306     0.55100
H291        H  0.38861199  0.45377607  0.15517456     0.08100
C292        C  0.38115188  0.04646347  0.13649524    -0.05700
C293        C  0.35674447  0.04314900  0.11550530    -0.06400
C294        C  0.31974312  0.50712476  0.11166667    -0.16000
C295        C  0.29809075  0.48508982  0.13358068    -0.01600
C296        C  0.32239446  0.48739247  0.15457804    -0.09100
C297        C  0.42905096  0.07714423  0.13610309     0.65200
H298        H  0.37234482  0.06209850  0.09910927     0.10600
C299        C  0.24980005  0.45928355  0.13477362     0.63600
H300        H  0.30670021  0.46944049  0.17126213     0.08000
F301        F  0.45947836  0.43363882  0.17599425    -0.19500
F302        F  0.38842991  0.39388807  0.17285730    -0.15700
F303        F  0.41848428  0.40412373  0.21021758    -0.19200
F304        F  0.33075228  0.03730050  0.20725355    -0.22600
F305        F  0.38752532  0.09483725  0.19084497    -0.24100
F306        F  0.38712559  0.07906545  0.23131244    -0.18100
F307        F  0.23465440  0.42407856  0.11972594    -0.20500
F308        F  0.23315410  0.48343001  0.12671053    -0.21700
F309        F  0.23542349  0.44575718  0.15886137    -0.18900
F310        F  0.44262028  0.09897131  0.11371230    -0.19000
F311        F  0.45046864  0.05578827  0.13950696    -0.22800
F312        F  0.44003761  0.10636937  0.15491388    -0.24400
C313        C  0.48337066  0.34610593  0.20674102    -0.11200
C314        C  0.51357977  0.36429033  0.18769345     0.11400
C315        C  0.04097673  0.42372471  0.18497845    -0.03000
C316        C  0.03670561  0.44624838  0.20449768    -0.05800
C317        C  0.50499008  0.41582266  0.22306019    -0.16500
C318        C  0.47750273  0.37093228  0.22422264     0.02400
C319        C  0.50337730  0.34101282  0.16396634     0.12300
C320        C  0.07336156  0.44897063  0.16475460     0.62900
H321        H  0.05734422  0.48032571  0.20457006     0.12400
C322        C  0.43923125  0.34679882  0.24123456     0.55100
H323        H  0.46071341  0.31239544  0.20607178     0.08100
C324        C  0.51481432  0.31083552  0.15853932    -0.05700
C325        C  0.50777082  0.29439128  0.13413715    -0.06400
C326        C  0.48865203  0.30666032  0.11584439    -0.16000
C327        C  0.96790218  0.34174362  0.12013516    -0.01600
C328        C  0.97697740  0.36053775  0.14379745    -0.09100
C329        C  0.53514796  0.29726608  0.17825162     0.65200
H330        H  0.51785117  0.27256111  0.12899766     0.10600
C331        C  0.93981276  0.34880554  0.10225072     0.63600
H332        H  0.96384052  0.37969039  0.14932132     0.08000
F333        F  0.44815406  0.32518164  0.25898873    -0.19500
F334        F  0.40414191  0.31792180  0.22746711    -0.15700
F335        F  0.42779030  0.37217988  0.25303005    -0.19200
F336        F  0.06022623  0.47272730  0.15182105    -0.22600
F337        F  0.07887917  0.42392252  0.14792736    -0.24100
F338        F  0.11252461  0.47596632  0.17565236    -0.18100
F339        F  0.92793756  0.37580870  0.11211674    -0.20500
F340        F  0.90299400  0.31074091  0.09727421    -0.21700
F341        F  0.96142596  0.36638044  0.08017520    -0.18900
F342        F  0.54486850  0.26832556  0.16898183    -0.19000
F343        F  0.50737365  0.27872748  0.19807932    -0.22800
F344        F  0.57240450  0.33201267  0.18680724    -0.24400
C345        C  0.10221792  0.11149266  0.13363710    -0.11200
C346        C  0.12131216  0.13234177  0.15601234     0.11400
C347        C  0.15860629  0.17300805  0.15546095    -0.03000
C348        C  0.17504634  0.19202158  0.13208878    -0.05800
C349        C  0.15533737  0.17123101  0.10980694    -0.16500
C350        C  0.11822979  0.13060699  0.11040624     0.02400
C351        C  0.10080787  0.11004428  0.17952728     0.12300
C352        C  0.18110976  0.19581437  0.17932238     0.62900
H353        H  0.20374082  0.22291040  0.13098560     0.12400
C354        C  0.09553224  0.10783715  0.08654363     0.55100
H355        H  0.07421494  0.08007335  0.13460063     0.08100
C356        C  0.06111501  0.10392201  0.18714306    -0.05700
C357        C  0.03932822  0.07539889  0.20658197    -0.06400
C358        C  0.05790402  0.05684099  0.22064715    -0.16000
C359        C  0.10001068  0.06700063  0.21458052    -0.01600
C360        C  0.11943427  0.09132488  0.19311378    -0.09100
C361        C  0.04181519  0.12730865  0.17482896     0.65200
H362        H  0.00681601  0.06663660  0.21060578     0.10600
C363        C  0.12616752  0.05335531  0.22928328     0.63600
H364        H  0.14971130  0.09590595  0.18690560     0.08000
F365        F  0.05865986  0.06964178  0.09141135    -0.19500
F366        F  0.12210340  0.09995460  0.07229313    -0.15700
F367        F  0.08439914  0.13257627  0.07293265    -0.19200
F368        F  0.19851854  0.17470196  0.19091104    -0.22600
F369        F  0.15255932  0.19753808  0.19540553    -0.24100
F370        F  0.21377669  0.23675266  0.17462021    -0.18100
F371        F  0.12837391  0.02223685  0.21639318    -0.20500
F372        F  0.16712307  0.08749704  0.23243688    -0.21700
F373        F  0.11002930  0.03892448  0.25266209    -0.18900
F374        F  0.00567191  0.12045413  0.18729246    -0.19000
F375        F  0.03070896  0.11426746  0.15039605    -0.22800
F376        F  0.07107386  0.17021338  0.17511741    -0.24400
C377        C  0.37211654  0.40464842  0.86356658    -0.11200
C378        C  0.36241674  0.37618056  0.84383770     0.11400
C379        C  0.33719159  0.33220624  0.84827850    -0.03000
C380        C  0.32131772  0.31825937  0.87249345    -0.05800
C381        C  0.33062644  0.34678381  0.89214371    -0.16500
C382        C  0.35665306  0.39068573  0.88783074     0.02400
C383        C  0.38417581  0.39384968  0.81975030     0.12300
C384        C  0.32778450  0.30022823  0.82775697     0.62900
H385        H  0.30163513  0.28478265  0.87637810     0.12400
C386        C  0.36977457  0.42239770  0.90893077     0.55100
H387        H  0.39283550  0.43804955  0.85982615     0.08100
C388        C  0.37097875  0.41425450  0.80273989    -0.05700
C389        C  0.39800523  0.43674427  0.78257727    -0.06400
C390        C  0.43714753  0.43902496  0.77901359    -0.16000
C391        C  0.44843609  0.41589278  0.79516782    -0.01600
C392        C  0.42236480  0.39485488  0.81569542    -0.09100
C393        C  0.32935889  0.41337925  0.80634650     0.65200
H394        H  0.39013845  0.45516676  0.77051349     0.10600
C395        C  0.48841113  0.41394878  0.79230170     0.63600
H396        H  0.43242524  0.37972143  0.82915662     0.08000
F397        F  0.33442578  0.42195741  0.91831964    -0.19500
F398        F  0.39857157  0.46310301  0.90101500    -0.15700
F399        F  0.38883635  0.41223600  0.92780861    -0.19200
F400        F  0.36523831  0.30338875  0.81987577    -0.22600
F401        F  0.30866477  0.30756653  0.80769292    -0.24100
F402        F  0.30068443  0.25923130  0.83588355    -0.18100
F403        F  0.51885732  0.44164755  0.80896547    -0.20500
F404        F  0.50419375  0.42369404  0.76835108    -0.21700
F405        F  0.47972113  0.37353752  0.79740472    -0.18900
F406        F  0.32238202  0.43471427  0.78741365    -0.19000
F407        F  0.32985299  0.43203901  0.82876612    -0.22800
F408        F  0.29561974  0.37213206  0.80646692    -0.24400
C409        C  0.01353841  0.13401145  0.80386856    -0.11200
C410        C  0.98778260  0.11060690  0.82387994     0.11400
C411        C  0.45545682  0.06775546  0.81879805    -0.03000
C412        C  0.46074233  0.04858504  0.79788140    -0.05800
C413        C  0.99831172  0.06934793  0.78306410    -0.16500
C414        C  0.02099575  0.11451386  0.78371771     0.02400
C415        C  0.99047923  0.13279282  0.84702369     0.12300
C416        C  0.42103781  0.04141327  0.83787615     0.62900
H417        H  0.44015303  0.01488363  0.79560303     0.12400
C418        C  0.05490923  0.14482359  0.76558343     0.55100
H419        H  0.03089909  0.16819442  0.80513865     0.08100
C420        C  0.02207251  0.14108392  0.86509971    -0.05700
C421        C  0.01955080  0.15700621  0.88820536    -0.06400
C422        C  0.98687161  0.16493320  0.89346869    -0.16000
C423        C  0.45227109  0.15849273  0.87348716    -0.01600
C424        C  0.45550918  0.14355537  0.85007729    -0.09100
C425        C  0.05731119  0.13173061  0.86036669     0.65200
H426        H  0.04253828  0.16230675  0.90266823     0.10600
C427        C  0.41719175  0.16832812  0.87762142     0.63600
H428        H  0.43347988  0.13919215  0.83520288     0.08000
F429        F  0.09055974  0.17422506  0.77874987    -0.19500
F430        F  0.03929903  0.16597185  0.75213688    -0.15700
F431        F  0.06830466  0.12570804  0.74925050    -0.19200
F432        F  0.39306379  0.05585052  0.83980802    -0.22600
F433        F  0.43920710  0.04404807  0.86098227    -0.24100
F434        F  0.39772330  0.99933325  0.83116788    -0.18100
F435        F  0.39584407  0.16576786  0.85568542    -0.20500
F436        F  0.43432335  0.20880444  0.88686713    -0.21700
F437        F  0.38748325  0.13954164  0.89425804    -0.18900
F438        F  0.08583042  0.14438300  0.88009259    -0.19000
F439        F  0.08001861  0.15285553  0.83923103    -0.22800
F440        F  0.03976474  0.08885955  0.85712225    -0.24400
C441        C  0.13254059  0.55131268  0.81075054    -0.11200
C442        C  0.13293351  0.99815256  0.81021885     0.11400
C443        C  0.11733825  0.97231529  0.78877348    -0.03000
C444        C  0.09312607  0.97997795  0.77130846    -0.05800
C445        C  0.08270241  0.01115942  0.77559330    -0.16500
C446        C  0.11126189  0.55997246  0.79229649     0.02400
C447        C  0.15026513  0.98847545  0.83247633     0.12300
C448        C  0.12517976  0.93632498  0.78493243     0.62900
H449        H  0.07952191  0.95954279  0.75527196     0.12400
C450        C  0.11043672  0.60002322  0.79514806     0.55100
H451        H  0.14373715  0.57084654  0.82737475     0.08100
C452        C  0.19249423  0.01646912  0.84073066    -0.05700
C453        C  0.20168339  0.01809049  0.86634996    -0.06400
C454        C  0.17019474  0.99211362  0.88369974    -0.16000
C455        C  0.12934402  0.47265571  0.87250585    -0.01600
C456        C  0.12215138  0.47575657  0.84699333    -0.09100
C457        C  0.22827874  0.04621406  0.82338325     0.65200
H458        H  0.23364731  0.04038460  0.87290782     0.10600
C459        C  0.09231771  0.44161470  0.88882739     0.63600
H460        H  0.09047728  0.45616742  0.83924593     0.08000
F461        F  0.10422013  0.61313683  0.77247424    -0.19500
F462        F  0.63642340  0.61752248  0.80835916    -0.15700
F463        F  0.56511401  0.57869078  0.81072529    -0.19200
F464        F  0.10530304  0.90653187  0.80359058    -0.22600
F465        F  0.16850425  0.95158719  0.78565906    -0.24100
F466        F  0.10959477  0.91665987  0.76213385    -0.20500
F467        F  0.08831890  0.46247059  0.90909107    -0.20500
F468        F  0.09915493  0.41017254  0.89715059    -0.21700
F469        F  0.05398753  0.42248685  0.87596658    -0.18900
F470        F  0.26192452  0.03945994  0.82584300    -0.19000
F471        F  0.24209436  0.08749423  0.82985802    -0.22800
F472        F  0.21615653  0.04046719  0.79853453    -0.24400
C473        C  0.38349993  0.40648280  0.68585106    -0.11200
C474        C  0.38855425  0.37163501  0.68462127     0.11400
C475        C  0.41280003  0.36593186  0.70308450    -0.03000
C476        C  0.43464043  0.39797501  0.72099686    -0.05800
C477        C  0.43238546  0.43482497  0.72104791    -0.16500
C478        C  0.40407087  0.43775360  0.70406905     0.02400
C479        C  0.37053844  0.34440868  0.66229973     0.12300
C480        C  0.41527316  0.32623344  0.70388432     0.62900
H481        H  0.45545304  0.39536216  0.73417413     0.12400
C482        C  0.39418756  0.47268558  0.70516063     0.55100
H483        H  0.36399259  0.40953738  0.67173323     0.08100
C484        C  0.32619013  0.32191822  0.65710182    -0.05700
C485        C  0.31248650  0.30836858  0.63254818    -0.06400
C486        C  0.34141347  0.31525967  0.61338536    -0.16000
C487        C  0.38561636  0.33540816  0.61888229    -0.01600
C488        C  0.39936458  0.35023890  0.64327420    -0.09100
C489        C  0.29218920  0.31267422  0.67643746     0.65200
H490        H  0.27871208  0.29244756  0.62824113     0.10600
C491        C  0.41847157  0.34333897  0.59893804     0.63600
H492        H  0.43313544  0.36874836  0.64737711     0.08000
F493        F  0.36152345  0.46570129  0.68903994    -0.19500
F494        F  0.42953685  0.51049311  0.69856801    -0.15700
F495        F  0.38108197  0.97562517  0.72811473    -0.19200
F496        F  0.43604088  0.32395348  0.68298744    -0.22600
F497        F  0.37450969  0.29116965  0.70455075    -0.24100
F498        F  0.43703370  0.32517700  0.72480461    -0.18100
F499        F  0.41340894  0.36352536  0.57860056    -0.20500
F500        F  0.41359135  0.30537369  0.59138229    -0.21700
F501        F  0.45979911  0.36846740  0.60765385    -0.18900
F502        F  0.26231853  0.26988640  0.67646263    -0.19000
F503        F  0.27207833  0.33448360  0.67024350    -0.22800
F504        F  0.30826562  0.32373765  0.70041000    -0.24400
C505        C  0.97426808  0.11768713  0.70478577    -0.11200
C506        C  0.00466749  0.13033423  0.68580388     0.11400
C507        C  0.03486734  0.11764162  0.68609320    -0.03000
C508        C  0.03116413  0.08937227  0.70446509    -0.05800
C509        C  0.99923456  0.07405399  0.72287933    -0.16500
C510        C  0.97003048  0.08868032  0.72323869     0.02400
C511        C  0.49692333  0.15471762  0.66198556     0.12300
C512        C  0.06990694  0.13252797  0.66652088     0.62900
H513        H  0.05315253  0.07816496  0.70421902     0.12400
C514        C  0.93230498  0.07374774  0.74067730     0.55100
H515        H  0.95151621  0.12813585  0.70400623     0.08100
C516        C  0.46787242  0.12998000  0.64301911    -0.05700
C517        C  0.47126877  0.14885203  0.61993631    -0.06400
C518        C  0.00793794  0.18665921  0.61645209    -0.16000
C519        C  0.03278735  0.21261747  0.63652810    -0.01600
C520        C  0.02780606  0.19378898  0.66006891    -0.09100
C521        C  0.43488532  0.08334426  0.64664112     0.65200
H522        H  0.45097450  0.12973146  0.60473184     0.10600
C523        C  0.06440406  0.25946112  0.63321705     0.63600
H524        H  0.04763054  0.21214439  0.67563614     0.08000
F525        F  0.42122227  0.04185877  0.75203602    -0.19500
F526        F  0.89541302  0.05872110  0.72668844    -0.15700
F527        F  0.93787627  0.10743942  0.75485638    -0.19200
F528        F  0.09532147  0.17601740  0.66717345    -0.22600
F529        F  0.54352112  0.11713645  0.63966679    -0.24100
F530        F  0.58997262  0.11603547  0.66646771    -0.18100
F531        F  0.08036608  0.27935751  0.65592129    -0.20500
F532        F  0.04467861  0.27840784  0.62165401    -0.21700
F533        F  0.09839592  0.26543261  0.61883466    -0.18900
F534        F  0.40972255  0.06581039  0.62561335    -0.19000
F535        F  0.40824324  0.07841920  0.66626683    -0.22800
F536        F  0.45488533  0.06104582  0.65168092    -0.24400
C537        C  0.14922852  0.97210420  0.64949326    -0.11200
C538        C  0.13226964  0.99839678  0.65052118     0.11400
C539        C  0.13366381  0.52743186  0.62586027    -0.03000
C540        C  0.15395020  0.52389956  0.60463879    -0.05800
C541        C  0.17279051  0.99456157  0.60690266    -0.16500
C542        C  0.16919531  0.96926317  0.62785424     0.02400
C543        C  0.11449669  0.51005774  0.67131825     0.12300
C544        C  0.11124835  0.55238721  0.62447288     0.62900
H545        H  0.15343071  0.53878346  0.58728680     0.12400
C546        C  0.18672126  0.93991423  0.62777332     0.55100
H547        H  0.14608848  0.95331756  0.66581553     0.08100
C548        C  0.07408632  0.47684163  0.67897904    -0.05700
C549        C  0.05570744  0.48268212  0.70034890    -0.06400
C550        C  0.07079185  0.00508664  0.71692310    -0.16000
C551        C  0.11328272  0.03744266  0.71127067    -0.01600
C552        C  0.13297765  0.03246431  0.69016209    -0.09100
C553        C  0.05015475  0.43590538  0.66433959     0.65200
H554        H  0.02440933  0.45794767  0.70627518     0.10600
C555        C  0.13787618  0.07783353  0.72624431     0.63600
H556        H  0.16570849  0.05595993  0.68569009     0.08000
F557        F  0.16213801  0.90587001  0.61232724    -0.19500
F558        F  0.18623862  0.92435264  0.65141524    -0.15700
F559        F  0.22848882  0.96129541  0.61948738    -0.19200
F560        F  0.14293933  0.08545439  0.64858831    -0.22600
F561        F  0.06910452  0.52725343  0.63160426    -0.24100
F562        F  0.11195571  0.56705849  0.60054124    -0.18100
F563        F  0.15243879  0.07003992  0.74818447    -0.20500
F564        F  0.11248741  0.09416976  0.73146673    -0.21700
F565        F  0.17295288  0.10854006  0.71323503    -0.18900
F566        F  0.01039082  0.40874545  0.67443995    -0.19000
F567        F  0.07298200  0.41561306  0.66454280    -0.22800
F568        F  0.04443368  0.44416438  0.63989819    -0.24400
C569        C  0.01701967  0.52521966  0.77217578     0.46100
H570        H  0.02076254  0.52643683  0.79277324    -0.02900
C571        C  0.00064017  0.00472848  0.72657649     0.46200
H572        H  0.99795646  0.00414332  0.70588127    -0.02900
C573        C  0.46335730  0.96620887  0.76185607    -0.16600
C574        C  0.01187950  0.56119933  0.76153796    -0.16400
C575        C  0.05522359  0.52868006  0.75804150    -0.16700
C576        C  0.45963806  0.96619929  0.73641381    -0.16700
C577        C  0.00551064  0.55835600  0.73615217    -0.16300
C578        C  0.04904046  0.52547545  0.73263199    -0.16600
O579        O  0.23196865  0.60473350  0.96753217    -0.77800
C580        C  0.24123423  0.67842060  0.03760267     0.83200
O581        O  0.34601423  0.75916516  0.96965496    -0.79000
O582        O  0.37887806  0.71413314  0.05012220    -0.80400
O583        O  0.31727329  0.58132963  0.01528616    -0.80200
O584        O  0.28080331  0.58643631  0.96204415    -0.78900
Zn585      Zn  0.26615587  0.66126122  0.98641271     1.55700
O586        O  0.30667826  0.60922375  0.04948113    -0.80300
Cd587      Cd  0.32748668  0.62342111  0.98695850     1.59700
Cd588      Cd  0.36762540  0.72377983  0.98762690     1.59600
O589        O  0.38650156  0.64717179  0.97029521    -0.80300
O590        O  0.31914940  0.66898604  0.99937158    -1.90800
Cd591      Cd  0.31913219  0.66791265  0.03672718     1.59900
O592        O  0.40650741  0.71479676  0.96438883    -0.80200
O593        O  0.27230832  0.67950172  0.04922292    -0.78900
C594        C  0.30882743  0.74742026  0.96132780     0.83700
C595        C  0.24364263  0.58020709  0.95858690     0.83300
O596        O  0.23384395  0.66868889  0.01454290    -0.77800
C597        C  0.30775861  0.57932542  0.03831861     0.84100
O598        O  0.27725500  0.71011431  0.96447153    -0.77900
C599        C  0.41233983  0.68398238  0.96181736     0.84300
C600        C  0.41038104  0.74582063  0.03949405     0.84600
O601        O  0.40929334  0.75509895  0.01667331    -0.80300
C602        C  0.31108955  0.82571527  0.91711249     0.80900
N603        N  0.31931240  0.79706784  0.92760110    -0.77400
C604        C  0.30073346  0.77834869  0.94957563     0.83300
N605        N  0.27359288  0.78787462  0.96080772    -0.77400
C606        C  0.26613433  0.81712810  0.95069919     0.83400
N607        N  0.28463723  0.83580415  0.92877232    -0.79100
O608        O  0.15982054  0.75357192  0.01596350    -0.77800
C609        C  0.06787524  0.76258364  0.96357362     0.83200
O610        O  0.24944904  0.86303459  0.97181827    -0.79000
O611        O  0.13693528  0.90484861  0.97267155    -0.80400
O612        O  0.09832948  0.81952848  0.05092438    -0.80200
O613        O  0.17323455  0.79158655  0.05073272    -0.78900
Zn614      Zn  0.15120919  0.78576059  0.98885627     1.55700
O615        O  0.07053621  0.83450547  0.01809989    -0.80300
Cd616      Cd  0.15933772  0.83684134  0.03881837     1.59700
Cd617      Cd  0.21445107  0.88553602  0.98946493     1.59600
O618        O  0.20419017  0.89678898  0.05211158    -0.80300
O619        O  0.15967885  0.83802342  0.00167069    -1.90800
Cd620      Cd  0.11344383  0.84665081  0.98995121     1.59900
O621        O  0.24547104  0.92664576  0.01853352    -0.80200
O622        O  0.07459358  0.79967796  0.96599701    -0.78900
C623        C  0.23631369  0.82626085  0.96300310     0.83700
C624        C  0.17082443  0.76055636  0.03880814     0.83300
O625        O  0.09327689  0.75157012  0.97214049    -0.77800
C626        C  0.06773871  0.82081422  0.04027144     0.84100
O627        O  0.19819089  0.79579460  0.96579821    -0.77900
C628        C  0.23575721  0.92807165  0.04121764     0.84300
C629        C  0.17352657  0.92934753  0.96308248     0.84600
O630        O  0.20454361  0.92324918  0.96548766    -0.80300
C631        C  0.18075381  0.69478306  0.08704122     0.80900
N632        N  0.20339134  0.68057345  0.07481636    -0.77400
C633        C  0.21476923  0.69161834  0.05064460     0.83300
N634        N  0.20339483  0.71697411  0.03882634    -0.77400
C635        C  0.18202234  0.73236595  0.05136650     0.83400
N636        N  0.17081652  0.72123971  0.07547911    -0.79100
C637        C  0.18003247  0.50204016  0.90956543     0.80900
N638        N  0.20319714  0.53979751  0.92158769    -0.77400
C639        C  0.21318965  0.54074605  0.94613791     0.83300
N640        N  0.20147795  0.50412925  0.95827558    -0.77400
C641        C  0.18097289  0.96631145  0.94901381     0.83400
N642        N  0.17099475  0.96270762  0.92450416    -0.79100
C643        C  0.48763742  0.80127482  0.09074881     0.80900
N644        N  0.45025914  0.77868576  0.07808232    -0.77400
C645        C  0.45046656  0.77115696  0.05332430     0.83300
N646        N  0.48827005  0.78591773  0.04135211    -0.77400
C647        C  0.02709312  0.80416111  0.05345682     0.83400
N648        N  0.02669777  0.80842170  0.07852418    -0.79100
C649        C  0.99140696  0.69375515  0.91572157     0.80900
N650        N  0.45169843  0.67653267  0.92750000    -0.77400
C651        C  0.45181409  0.69259678  0.95017197     0.83300
N652        N  0.99065861  0.71989626  0.96277411    -0.77400
C653        C  0.02833366  0.73172782  0.95150902     0.83400
N654        N  0.02869953  0.71907087  0.92791843    -0.79100
C655        C  0.29185355  0.00945474  0.09015982     0.80900
N656        N  0.27054160  0.97121230  0.07862207    -0.77400
C657        C  0.25983401  0.96874017  0.05411354     0.83300
N658        N  0.27092700  0.00458080  0.04115503    -0.77400
C659        C  0.29597257  0.54029855  0.05189815     0.83400
N660        N  0.30901316  0.54141222  0.07573144    -0.79100
O661        O  0.26446734  0.66706359  0.47961966    -0.77800
C662        C  0.27048063  0.57477326  0.53487721     0.83200
O663        O  0.37011230  0.75481269  0.52551294    -0.79000
O664        O  0.41640723  0.64733930  0.52694402    -0.80400
O665        O  0.33423726  0.60297362  0.44723610    -0.80200
O666        O  0.30193599  0.67617537  0.44482524    -0.78900
Zn667      Zn  0.29388106  0.65673539  0.50820268     1.55700
O668        O  0.34900651  0.57897749  0.48186939    -0.80300
Cd669      Cd  0.34734865  0.66279711  0.45866239     1.59700
Cd670      Cd  0.39320059  0.72051738  0.50798864     1.59600
O671        O  0.40816022  0.70836729  0.44640374    -0.80300
O672        O  0.34693585  0.66495880  0.49604118    -1.90800
Cd673      Cd  0.35712512  0.62103961  0.50944226     1.59900
O674        O  0.43505633  0.75140189  0.47942069    -0.80200
O675        O  0.30839185  0.58213391  0.53307492    -0.78900
C676        C  0.33338500  0.74070040  0.53518381     0.83700
C677        C  0.27175598  0.67661294  0.45651401     0.83300
O678        O  0.25896007  0.59903544  0.52523485    -0.77800
C679        C  0.33738144  0.57461842  0.45910313     0.84100
O680        O  0.30315647  0.70269448  0.53216227    -0.77900
C681        C  0.43818077  0.74097939  0.45724479     0.84300
C682        C  0.44008828  0.68445565  0.53569273     0.84600
O683        O  0.43210355  0.71372668  0.53246892    -0.80300
C684        C  0.32397436  0.80101718  0.58712079     0.80900
N685        N  0.33569225  0.77753660  0.57364660    -0.77400
C686        C  0.32436962  0.76902519  0.54928185     0.83300
N687        N  0.30141165  0.78411766  0.53839993    -0.77400
C688        C  0.28936039  0.80743011  0.55171952     0.83400
N689        N  0.30013897  0.81537150  0.57624877    -0.79100
O690        O  0.27237722  0.89906924  0.47122932    -0.77800
C691        C  0.26309638  0.82171988  0.53940496     0.83200
O692        O  0.16375184  0.74267768  0.47007343    -0.79000
O693        O  0.12563281  0.78695350  0.55022608    -0.80400
O694        O  0.18038449  0.91427117  0.51564255    -0.80200
O695        O  0.22085108  0.91324379  0.46406677    -0.78900
Zn696      Zn  0.23923854  0.84106390  0.48829423     1.55700
O697        O  0.19772710  0.89116268  0.54967859    -0.80300
Cd698      Cd  0.17366006  0.87359032  0.48770744     1.59700
Cd699      Cd  0.13866258  0.77449986  0.48868622     1.59600
O700        O  0.11550205  0.84803869  0.46969740    -0.80300
O701        O  0.18512328  0.83030795  0.50047543    -1.90800
Cd702      Cd  0.18576317  0.83232794  0.53773755     1.59900
O703        O  0.09768519  0.78086019  0.46518230    -0.80200
O704        O  0.23194036  0.82015083  0.55109144    -0.78900
C705        C  0.20106197  0.75744601  0.46097800     0.83700
C706        C  0.25910381  0.92207196  0.46183282     0.83300
O707        O  0.27059034  0.83239065  0.51646156    -0.77800
C708        C  0.19273248  0.91867498  0.53824526     0.84100
O709        O  0.23103791  0.79538091  0.46459375    -0.77900
C710        C  0.09078172  0.81082873  0.46150297     0.84300
C711        C  0.09515089  0.75405045  0.53993070     0.84600
O712        O  0.09773204  0.74250143  0.51790262    -0.80300
C713        C  0.19578209  0.49996960  0.58199859     0.80900
N714        N  0.22152096  0.53653413  0.56940932    -0.77400
C715        C  0.23932475  0.53568418  0.54744027     0.83300
N716        N  0.23072507  0.49818271  0.53785675    -0.77400
C717        C  0.20328652  0.95804870  0.55063640     0.83400
N718        N  0.18557663  0.95779898  0.57286376    -0.79100
C719        C  0.01372376  0.71312824  0.58980046     0.80900
N720        N  0.47572689  0.69233553  0.57515327    -0.77400
C721        C  0.47809984  0.69491592  0.55001742     0.83300
N722        N  0.01748397  0.71521108  0.53917721    -0.77400
C723        C  0.05401550  0.73104167  0.55278516     0.83400
N724        N  0.05205267  0.72996193  0.57814228    -0.79100
C725        C  0.51956727  0.81128611  0.41163654     0.80900
N726        N  0.05360648  0.81618616  0.42501573    -0.77400
C727        C  0.05190121  0.80123517  0.44838183     0.83300
N728        N  0.51549474  0.77627349  0.45675290    -0.77400
C729        C  0.47901466  0.76684980  0.44466652     0.83400
N730        N  0.48106820  0.78400185  0.42199151    -0.79100
C731        C  0.20544281  0.69247447  0.41011694     0.80900
N732        N  0.23097800  0.67960263  0.42041210    -0.77400
C733        C  0.24604139  0.69152826  0.44406134     0.83300
N734        N  0.23587300  0.71660845  0.45708713    -0.77400
C735        C  0.21089523  0.72982052  0.44676456     0.83400
N736        N  0.19544910  0.71746499  0.42336437    -0.79100
C737        C  0.31712439  0.99635899  0.41075607     0.80900
N738        N  0.33566873  0.53292489  0.42286143    -0.77400
C739        C  0.32535456  0.53434992  0.44700856     0.83300
N740        N  0.29978336  0.99853917  0.45959526    -0.77400
C741        C  0.28801391  0.96106247  0.44863511     0.83400
N742        N  0.29636779  0.96000520  0.42415165    -0.79100
C743        C  0.50337610  0.00040347  0.22445348     0.46100
H744        H  0.50789988  0.00183760  0.20398443    -0.02900
C745        C  0.98387458  0.98105742  0.27223390     0.46200
H746        H  0.98074092  0.98112707  0.29289958    -0.02900
C747        C  0.03205887  0.53399873  0.23732466    -0.16600
C748        C  0.46134600  0.99714085  0.23219473    -0.16400
C749        C  0.50309203  0.96281444  0.23745688    -0.16700
C750        C  0.02799146  0.53469379  0.26274252    -0.16700
C751        C  0.45671516  0.99625732  0.25776706    -0.16300
C752        C  0.50058662  0.96392152  0.26302488    -0.16600
C753        C  0.37153864  0.98547628  0.35415519    -0.11200
C754        C  0.36261011  0.49496309  0.33709511     0.11400
C755        C  0.33201736  0.50631352  0.34220031    -0.03000
C756        C  0.32026483  0.50611209  0.36721669    -0.05800
C757        C  0.32920549  0.99534035  0.38482895    -0.16500
C758        C  0.35810621  0.98203509  0.37892105     0.02400
C759        C  0.38084511  0.49855578  0.31208327     0.12300
C760        C  0.31174207  0.51789703  0.32133310     0.62900
H761        H  0.29737823  0.51527653  0.37185837     0.12400
C762        C  0.37557338  0.96532903  0.39870217     0.55100
H763        H  0.39452766  0.97660710  0.34913591     0.08100
C764        C  0.42217021  0.53227372  0.30644394    -0.05700
C765        C  0.44343842  0.52795392  0.28612620    -0.06400
C766        C  0.42385502  0.99986570  0.27185899    -0.16000
C767        C  0.38157673  0.96594600  0.27615284    -0.01600
C768        C  0.35791372  0.96990636  0.29541468    -0.09100
C769        C  0.44570953  0.57060184  0.32335167     0.65200
H770        H  0.47657920  0.55133181  0.28347259     0.10600
C771        C  0.36083263  0.92366766  0.26310013     0.63600
H772        H  0.32690180  0.94303268  0.30020408     0.08000
F773        F  0.40659716  0.95845321  0.38916716    -0.19500
F774        F  0.34297822  0.92732729  0.40793884    -0.15700
F775        F  0.39359445  0.99403339  0.41803842    -0.19200
F776        F  0.28921457  0.48360709  0.30571014    -0.22600
F777        F  0.34275692  0.55135349  0.30758916    -0.24100
F778        F  0.28381541  0.52936321  0.33048028    -0.18100
F779        F  0.38386735  0.92327023  0.24305638    -0.20500
F780        F  0.32101243  0.91349656  0.25441715    -0.21700
F781        F  0.35601964  0.89303620  0.27992456    -0.18900
F782        F  0.48218491  0.60256083  0.31205777    -0.19000
F783        F  0.45752924  0.55940346  0.34523406    -0.22800
F784        F  0.41993926  0.58655586  0.32905425    -0.24400
C785        C  0.11972849  0.62491538  0.36342263    -0.11200
C786        C  0.14225886  0.63832344  0.34087937     0.11400
C787        C  0.18560319  0.67110902  0.34077923    -0.03000
C788        C  0.20570528  0.68844236  0.36383539    -0.05800
C789        C  0.18318953  0.67422875  0.38641733    -0.16500
C790        C  0.13948299  0.64241793  0.38632168     0.02400
C791        C  0.11948261  0.61475416  0.31815765     0.12300
C792        C  0.21029346  0.68681546  0.31650709     0.62900
H793        H  0.23903620  0.71310310  0.36444020     0.12400
C794        C  0.11405054  0.62651358  0.41040291     0.55100
H795        H  0.08650236  0.59993075  0.36288379     0.08100
C796        C  0.10881801  0.57254393  0.31455570    -0.05700
C797        C  0.07877538  0.54852397  0.29626383    -0.06400
C798        C  0.06054416  0.56539741  0.28047440    -0.16000
C799        C  0.07179850  0.60805424  0.28375907    -0.01600
C800        C  0.10145831  0.63200919  0.30256121    -0.09100
C801        C  0.12714997  0.55071128  0.32969478     0.65200
H802        H  0.06974440  0.51579597  0.29407032     0.10600
C803        C  0.05245446  0.62965941  0.26954365     0.63600
H804        H  0.10882575  0.66395348  0.30607105     0.08000
F805        F  0.13429673  0.61356454  0.42684701    -0.19500
F806        F  0.07328452  0.59264340  0.40627370    -0.15700
F807        F  0.11050443  0.65843114  0.42126380    -0.19200
F808        F  0.19163678  0.70310901  0.30129921    -0.22600
F809        F  0.21009191  0.65381057  0.30429566    -0.24100
F810        F  0.25226957  0.71827680  0.32053610    -0.18100
F811        F  0.01936461  0.60288158  0.25414499    -0.20500
F812        F  0.08371684  0.66195752  0.25522540    -0.21700
F813        F  0.03674292  0.64668039  0.28633245    -0.18900
F814        F  0.14255209  0.53248721  0.31357579    -0.19000
F815        F  0.09518674  0.51927183  0.34413702    -0.22800
F816        F  0.16034315  0.57774516  0.34517967    -0.24400
C817        C  0.53404305  0.89262124  0.36365690    -0.11200
C818        C  0.51029439  0.86630171  0.34380596     0.11400
C819        C  0.99318753  0.80775980  0.34491699    -0.03000
C820        C  0.99998035  0.79452618  0.36812960    -0.05800
C821        C  0.52081243  0.83173359  0.38789071    -0.16500
C822        C  0.53951497  0.87602346  0.38595480     0.02400
C823        C  0.50421768  0.88635002  0.32172902     0.12300
C824        C  0.97631860  0.77747933  0.32297707     0.62900
H825        H  0.99095889  0.76193008  0.37098663     0.12400
C826        C  0.56342317  0.90540286  0.40759806     0.55100
H827        H  0.54744442  0.92632669  0.36164536     0.08100
C828        C  0.47210241  0.89661885  0.32085004    -0.05700
C829        C  0.47091779  0.91929058  0.30019764    -0.06400
C830        C  0.50263768  0.93490774  0.28159887    -0.16000
C831        C  0.02645286  0.90943521  0.28283544    -0.01600
C832        C  0.02617994  0.88339579  0.30190227    -0.09100
C833        C  0.44049568  0.88538202  0.34211593     0.65200
H834        H  0.44579594  0.92647727  0.29890466     0.10600
C835        C  0.06684070  0.93137512  0.26740189     0.63600
H836        H  0.05329484  0.87926444  0.30407156     0.08000
F837        F  0.57546768  0.94677579  0.40231001    -0.19500
F838        F  0.08843538  0.90048823  0.41349555    -0.15700
F839        F  0.53776338  0.89290893  0.42860246    -0.19200
F840        F  0.00548122  0.79339044  0.30364005    -0.22600
F841        F  0.43664312  0.79726438  0.31572772    -0.24100
F842        F  0.96957234  0.73816674  0.32932366    -0.18100
F843        F  0.10188027  0.95112124  0.28310725    -0.20500
F844        F  0.07456592  0.46662179  0.25427654    -0.21700
F845        F  0.06977870  0.90180911  0.25319660    -0.18900
F846        F  0.41083080  0.89694424  0.33689327    -0.19000
F847        F  0.46201093  0.90614959  0.36361635    -0.22800
F848        F  0.41866922  0.84239961  0.34649362    -0.24400
C849        C  0.39765269  0.98575336  0.17284712    -0.11200
C850        C  0.39010945  0.50470593  0.17488963     0.11400
C851        C  0.40111085  0.52813278  0.19730182    -0.03000
C852        C  0.42431624  0.52070598  0.21552246    -0.05800
C853        C  0.43252593  0.00023970  0.21343084    -0.16500
C854        C  0.41973847  0.97663975  0.19072936     0.02400
C855        C  0.36713974  0.51077154  0.15406899     0.12300
C856        C  0.38759380  0.55996919  0.20210917     0.62900
H857        H  0.43581123  0.54052734  0.23192257     0.12400
C858        C  0.42694956  0.94068690  0.18468714     0.55100
H859        H  0.38945519  0.96951283  0.15502382     0.08100
C860        C  0.38867708  0.53327324  0.13220257    -0.05700
C861        C  0.36438996  0.53149635  0.11146457    -0.06400
C862        C  0.31276024  0.01392509  0.11447644    -0.16000
C863        C  0.29150776  0.98903784  0.13570719    -0.01600
C864        C  0.31593102  0.99259700  0.15691881    -0.09100
C865        C  0.43701032  0.55895737  0.13064043     0.65200
H866        H  0.38022109  0.54812960  0.09446358     0.10600
C867        C  0.24353115  0.95927984  0.13608227     0.63600
H868        H  0.30089856  0.97230933  0.17294069     0.08000
F869        F  0.46490844  0.95578695  0.17195220    -0.19500
F870        F  0.39439617  0.91084761  0.16976207    -0.15700
F871        F  0.42716183  0.92006256  0.20598536    -0.19200
F872        F  0.34361311  0.53987500  0.20138915    -0.22600
F873        F  0.40445957  0.59127461  0.18413352    -0.24100
F874        F  0.40109549  0.57883981  0.22528987    -0.18100
F875        F  0.23200492  0.92611240  0.11983919    -0.20500
F876        F  0.22358170  0.98087730  0.12901971    -0.21700
F877        F  0.22904603  0.94257363  0.15966986    -0.18900
F878        F  0.45111946  0.57698870  0.10727866    -0.19000
F879        F  0.45394140  0.53379892  0.13548303    -0.22800
F880        F  0.45238938  0.59113521  0.14786711    -0.24400
C881        C  0.48544847  0.86188277  0.20596152    -0.11200
C882        C  0.51455310  0.88007299  0.18630472     0.11400
C883        C  0.03730534  0.90844409  0.18738376    -0.03000
C884        C  0.02979129  0.93189321  0.20469178    -0.05800
C885        C  0.50767791  0.93147376  0.22246353    -0.16500
C886        C  0.47994173  0.88672532  0.22361167     0.02400
C887        C  0.50472589  0.85487763  0.16334327     0.12300
C888        C  0.07210283  0.93274260  0.16818068     0.62900
H889        H  0.04955219  0.96600033  0.20387408     0.12400
C890        C  0.44164423  0.86312649  0.24081309     0.55100
H891        H  0.46339974  0.82801634  0.20573629     0.08100
C892        C  0.52314634  0.83056950  0.15756332    -0.05700
C893        C  0.51501347  0.81149092  0.13390471    -0.06400
C894        C  0.48837415  0.81543401  0.11653615    -0.16000
C895        C  0.97220292  0.83080015  0.12249555    -0.01600
C896        C  0.97785722  0.84686131  0.14664558    -0.09100
C897        C  0.55187007  0.82593377  0.17608119     0.65200
H898        H  0.53023533  0.79418976  0.12851234     0.10600
C899        C  0.95077159  0.84381633  0.10299635     0.63600
H900        H  0.96503778  0.86650045  0.15171475     0.08000
F901        F  0.45099883  0.84282899  0.25922849    -0.19500
F902        F  0.40677495  0.83307713  0.22737012    -0.15700
F903        F  0.42942366  0.88876228  0.25180197    -0.19200
F904        F  0.06159983  0.95726659  0.15384916    -0.22600
F905        F  0.07847704  0.90698122  0.15242880    -0.24100
F906        F  0.11015132  0.95886552  0.18039974    -0.18100
F907        F  0.94180332  0.87334358  0.11220520    -0.20500
F908        F  0.91275352  0.80903209  0.09540502    -0.21700
F909        F  0.97737151  0.86168058  0.08258211    -0.18900
F910        F  0.56676304  0.80106392  0.16671424    -0.19000
F911        F  0.52939372  0.80733644  0.19775465    -0.22800
F912        F  0.58664367  0.86515878  0.18175175    -0.24400
C913        C  0.10950757  0.62112154  0.13731528    -0.11200
C914        C  0.12460694  0.64744257  0.15827754     0.11400
C915        C  0.15895839  0.68955107  0.15605433    -0.03000
C916        C  0.17725210  0.70405466  0.13233985    -0.05800
C917        C  0.16209711  0.67746646  0.11145084    -0.16500
C918        C  0.12704516  0.63575857  0.11365519     0.02400
C919        C  0.10488491  0.62789574  0.18232840     0.12300
C920        C  0.17595644  0.71874329  0.17848999     0.62900
H921        H  0.20352417  0.73616467  0.12987751     0.12400
C922        C  0.10743134  0.60733323  0.09102894     0.55100
H923        H  0.08355170  0.58881481  0.13972238     0.08100
C924        C  0.06284352  0.61702696  0.18808015    -0.05700
C925        C  0.04152370  0.58780330  0.20724733    -0.06400
C926        C  0.06129241  0.57063160  0.22145493    -0.16000
C927        C  0.10467480  0.58409903  0.21666424    -0.01600
C928        C  0.12542839  0.61223927  0.19689234    -0.09100
C929        C  0.03985204  0.63450946  0.17327584     0.65200
H930        H  0.00819717  0.57653202  0.21050408     0.10600
C931        C  0.13049047  0.56886052  0.23023726     0.63600
H932        H  0.15746382  0.62031289  0.19183603     0.08000
F933        F  0.07102038  0.56950672  0.09720706    -0.19500
F934        F  0.13638376  0.59829669  0.08071936    -0.15700
F935        F  0.09625008  0.62730884  0.07335318    -0.19200
F936        F  0.19214235  0.70303270  0.19592394    -0.22600
F937        F  0.14359073  0.72200229  0.18935959    -0.24100
F938        F  0.20819598  0.75893475  0.17185739    -0.18100
F939        F  0.14102021  0.54682200  0.21384958    -0.20500
F940        F  0.16763014  0.60324745  0.23926087    -0.21700
F941        F  0.10925226  0.54317775  0.25002977    -0.18900
F942        F  0.00136192  0.62406932  0.18417980    -0.19000
F943        F  0.03182747  0.61858350  0.14928032    -0.22800
F944        F  0.06460819  0.67799914  0.17212367    -0.24400
C945        C  0.36567222  0.90032620  0.86283111    -0.11200
C946        C  0.35729437  0.87154997  0.84348511     0.11400
C947        C  0.33415317  0.82763564  0.84846510    -0.03000
C948        C  0.32004488  0.81412376  0.87293109    -0.05800
C949        C  0.32775909  0.84289922  0.89216598    -0.16500
C950        C  0.35082339  0.88676803  0.88719427     0.02400
C951        C  0.37943855  0.88936283  0.81966110     0.12300
C952        C  0.32382793  0.79376578  0.82905376     0.62900
H953        H  0.30234653  0.78056671  0.87702088     0.12400
C954        C  0.36111085  0.91912801  0.90760692     0.55100
H955        H  0.38473752  0.93374714  0.85870261     0.08100
C956        C  0.36562987  0.90846165  0.80213282    -0.05700
C957        C  0.39251397  0.93046505  0.78189318    -0.06400
C958        C  0.43180174  0.93295150  0.77872451    -0.16000
C959        C  0.44317153  0.91015048  0.79506663    -0.01600
C960        C  0.41740508  0.88989768  0.81576781    -0.09100
C961        C  0.32296040  0.90561062  0.80493659     0.65200
H962        H  0.38425611  0.94803765  0.76932475     0.10600
C963        C  0.48224817  0.90674438  0.79181062     0.63600
H964        H  0.42717649  0.87454673  0.82925715     0.08000
F965        F  0.32421987  0.91754194  0.91512656    -0.19500
F966        F  0.38950566  0.95980591  0.89948467    -0.15700
F967        F  0.37928991  0.91086690  0.92784902    -0.19200
F968        F  0.34375136  0.77192549  0.83562263    -0.22600
F969        F  0.33651221  0.80954626  0.80517035    -0.24100
F970        F  0.28023062  0.76581918  0.82854189    -0.18100
F971        F  0.51292297  0.93250236  0.80899622    -0.20500
F972        F  0.49861571  0.91770423  0.76804250    -0.21700
F973        F  0.47175379  0.86547214  0.79579438    -0.18900
F974        F  0.31568715  0.92630268  0.78573552    -0.19000
F975        F  0.32137039  0.92348628  0.82722986    -0.22800
F976        F  0.29063430  0.86367547  0.80464740    -0.24400
C977        C  0.02247997  0.65422725  0.79970442    -0.11200
C978        C  0.99408143  0.63112209  0.81884575     0.11400
C979        C  0.46352788  0.57634728  0.81808640    -0.03000
C980        C  0.46800488  0.55629354  0.79731901    -0.05800
C981        C  0.00622595  0.58910249  0.77910636    -0.16500
C982        C  0.03010176  0.63427572  0.77988508     0.02400
C983        C  0.99702843  0.65279877  0.84229662     0.12300
C984        C  0.42938369  0.55095611  0.83749169     0.62900
H985        H  0.44713112  0.52253242  0.79547527     0.12400
C986        C  0.06505905  0.66415726  0.76212239     0.55100
H987        H  0.04134852  0.68834732  0.80135867     0.08100
C988        C  0.02800688  0.65931587  0.86041625    -0.05700
C989        C  0.02529582  0.67381164  0.88393254    -0.06400
C990        C  0.99234105  0.68097357  0.88990735    -0.16000
C991        C  0.46213792  0.66989582  0.87140966    -0.01600
C992        C  0.46534282  0.65460330  0.84809876    -0.09100
C993        C  0.06234332  0.64880003  0.85544774     0.65200
H994        H  0.04799964  0.67785969  0.89828762     0.10600
C995        C  0.42963976  0.68335512  0.87482760     0.63600
H996        H  0.44399277  0.65109287  0.83299753     0.08000
F997        F  0.10182904  0.69008202  0.77557566    -0.19500
F998        F  0.05246415  0.68915181  0.75013852    -0.15700
F999        F  0.07519457  0.64431379  0.74435892    -0.19200
F1000       F  0.40155100  0.56563280  0.83895497    -0.22600
F1001       F  0.44782254  0.55468707  0.86064406    -0.24100
F1002       F  0.40594052  0.50853723  0.83152078    -0.18100
F1003       F  0.41186012  0.68495907  0.85229079    -0.20500
F1004       F  0.44892499  0.72316121  0.88536447    -0.21700
F1005       F  0.39689494  0.65476588  0.89006371    -0.18900
F1006       F  0.08922651  0.65787093  0.87574160    -0.19000
F1007       F  0.08709039  0.67196259  0.83534956    -0.22800
F1008       F  0.04338858  0.60622415  0.85042163    -0.24400
C1009       C  0.12673587  0.03201365  0.81292638    -0.11200
C1010       C  0.13864726  0.51728853  0.80871691     0.11400
C1011       C  0.12599420  0.49271971  0.78668263    -0.03000
C1012       C  0.10263112  0.50020659  0.76847088    -0.05800
C1013       C  0.09205538  0.53142370  0.77205112    -0.16500
C1014       C  0.10250594  0.03947061  0.79593738     0.02400
C1015       C  0.15390336  0.50657721  0.83154407     0.12300
C1016       C  0.13648964  0.45854360  0.78287993     0.62900
H1017       H  0.08955459  0.47943919  0.75252853     0.12400
C1018       C  0.09892662  0.07776007  0.80058743     0.55100
H1019       H  0.13927373  0.05162196  0.82945871     0.08100
C1020       C  0.19518725  0.53391217  0.84138061    -0.05700
C1021       C  0.20267031  0.53050206  0.86678449    -0.06400
C1022       C  0.17031937  0.50095456  0.88257890    -0.16000
C1023       C  0.12868655  0.96174394  0.87510345    -0.01600
C1024       C  0.11967744  0.96043611  0.84950431    -0.09100
C1025       C  0.23166658  0.56838914  0.82625423     0.65200
H1026       H  0.23401143  0.55192542  0.87450646     0.10600
C1027       C  0.09297975  0.93282016  0.89288747     0.63600
H1028       H  0.08739570  0.93994713  0.84283053     0.08000
F1029       F  0.09519546  0.09402885  0.77842666    -0.19500
F1030       F  0.62839563  0.11046408  0.81246599    -0.15700
F1031       F  0.55758664  0.06965004  0.81014589    -0.19200
F1032       F  0.11565842  0.42706666  0.80052672    -0.22600
F1033       F  0.18000574  0.47572560  0.78531428    -0.24100
F1034       F  0.12439201  0.44058266  0.75939079    -0.20500
F1035       F  0.08991309  0.95618939  0.91202196    -0.20500
F1036       F  0.10096905  0.90298926  0.90276144    -0.21700
F1037       F  0.05379577  0.91145699  0.88097770    -0.18900
F1038       F  0.26695976  0.56418045  0.82835349    -0.19000
F1039       F  0.24189564  0.60736079  0.83558209    -0.22800
F1040       F  0.22219214  0.56707875  0.80112974    -0.24400
C1041       C  0.37500919  0.90038627  0.68732184    -0.11200
C1042       C  0.37915465  0.86501123  0.68599640     0.11400
C1043       C  0.40536887  0.86012000  0.70344135    -0.03000
C1044       C  0.42840391  0.89250106  0.72100112    -0.05800
C1045       C  0.42702304  0.92982374  0.72105536    -0.16500
C1046       C  0.39830635  0.93295327  0.70446702     0.02400
C1047       C  0.36397767  0.84043653  0.66253819     0.12300
C1048       C  0.40976761  0.82147045  0.70305600     0.62900
H1049       H  0.44985083  0.88998635  0.73371734     0.12400
C1050       C  0.39159209  0.97000488  0.70440294     0.55100
H1051       H  0.35539127  0.90365755  0.67337868     0.08100
C1052       C  0.32017798  0.81291791  0.65705155    -0.05700
C1053       C  0.30831642  0.79908940  0.63223358    -0.06400
C1054       C  0.33878208  0.81269279  0.61308659    -0.16000
C1055       C  0.38252280  0.83978643  0.61868985    -0.01600
C1056       C  0.39430157  0.85290593  0.64344855    -0.09100
C1057       C  0.28618315  0.79947299  0.67704928     0.65200
H1058       H  0.27500579  0.77871997  0.62738424     0.10600
C1059       C  0.41634245  0.85724137  0.59837711     0.63600
H1060       H  0.42732535  0.87533934  0.64791932     0.08000
F1061       F  0.35867527  0.96369209  0.68869933    -0.19500
F1062       F  0.42791250  0.00581137  0.69633204    -0.15700
F1063       F  0.38129189  0.47488882  0.72894471    -0.19200
F1064       F  0.42644223  0.81872595  0.68050258    -0.22600
F1065       F  0.37020989  0.78552448  0.70632692    -0.24100
F1066       F  0.43639041  0.82271120  0.72188475    -0.18100
F1067       F  0.40628509  0.87787027  0.58052971    -0.20500
F1068       F  0.41853038  0.82475329  0.58724967    -0.21700
F1069       F  0.45638845  0.88575068  0.60775166    -0.18900
F1070       F  0.24619895  0.76955319  0.66822764    -0.19000
F1071       F  0.28431937  0.83394241  0.68511092    -0.22800
F1072       F  0.29563478  0.78216812  0.69714106    -0.24400
C1073       C  0.98257292  0.63894937  0.70634129    -0.11200
C1074       C  0.01096436  0.65167035  0.68625735     0.11400
C1075       C  0.03847173  0.63579458  0.68356249    -0.03000
C1076       C  0.03420201  0.60495541  0.70024897    -0.05800
C1077       C  0.00448439  0.59028747  0.71983252    -0.16500
C1078       C  0.97711395  0.60673164  0.72261346     0.02400
C1079       C  0.50084330  0.66431849  0.66422217     0.12300
C1080       C  0.07110707  0.65006276  0.66256591     0.62900
H1081       H  0.05419378  0.59167041  0.69790717     0.12400
C1082       C  0.93901094  0.58920771  0.73996849     0.55100
H1083       H  0.96129846  0.65112136  0.70765533     0.08100
C1084       C  0.46804259  0.64075563  0.64670654    -0.05700
C1085       C  0.47160280  0.65788259  0.62296689    -0.06400
C1086       C  0.00927051  0.70333055  0.61662447    -0.16000
C1087       C  0.03791563  0.73041852  0.63518464    -0.01600
C1088       C  0.03414706  0.71415628  0.65942673    -0.09100
C1089       C  0.43084403  0.59657469  0.65241327     0.65200
H1090       H  0.44812376  0.63903389  0.60892746     0.10600
C1091       C  0.07263915  0.77552518  0.62949831     0.63600
H1092       H  0.05727620  0.73292352  0.67367544     0.08000
F1093       F  0.42563171  0.54414423  0.75109974    -0.19500
F1094       F  0.90289314  0.57925368  0.72627638    -0.15700
F1095       F  0.94555014  0.61935244  0.75750783    -0.19200
F1096       F  0.09951799  0.69302579  0.66434233    -0.22600
F1097       F  0.54491260  0.63050363  0.63865128    -0.24100
F1098       F  0.58735089  0.61740891  0.66212096    -0.18100
F1099       F  0.09098486  0.79815860  0.65116220    -0.20500
F1100       F  0.05565586  0.79578121  0.61641721    -0.21700
F1101       F  0.10442475  0.77581510  0.61546708    -0.18900
F1102       F  0.40352407  0.57904659  0.63223091    -0.19000
F1103       F  0.40742240  0.59823865  0.67209644    -0.22800
F1104       F  0.44570611  0.57008477  0.65854323    -0.24400
C1105       C  0.15668482  0.48564794  0.64899124    -0.11200
C1106       C  0.13491754  0.50756432  0.64820465     0.11400
C1107       C  0.13671841  0.02439742  0.62990966    -0.03000
C1108       C  0.15692597  0.02187413  0.60834792    -0.05800
C1109       C  0.17495478  0.50116821  0.60519047    -0.16500
C1110       C  0.17662291  0.48170420  0.62766768     0.02400
C1111       C  0.11071677  0.99860863  0.67373090     0.12300
C1112       C  0.12061894  0.05492129  0.63072548     0.62900
H1113       H  0.16030914  0.04120409  0.59226445     0.12400
C1114       C  0.20014511  0.45790465  0.62939735     0.55100
H1115       H  0.15763922  0.47142785  0.66651518     0.08100
C1116       C  0.06873628  0.96614238  0.67943037    -0.05700
C1117       C  0.05009120  0.96942110  0.70144966    -0.06400
C1118       C  0.07599061  0.52064042  0.71384607    -0.16000
C1119       C  0.11725826  0.55353427  0.70646792    -0.01600
C1120       C  0.13607686  0.54700962  0.68547483    -0.09100
C1121       C  0.04292002  0.92937608  0.66179737     0.65200
H1122       H  0.01785318  0.94501595  0.70605754     0.10600
C1123       C  0.14146955  0.59572400  0.71973459     0.63600
H1124       H  0.16760493  0.57128200  0.67942311     0.08000
F1125       F  0.17926431  0.42148291  0.61527775    -0.19500
F1126       F  0.20228572  0.44636548  0.65374649    -0.15700
F1127       F  0.24141033  0.48304290  0.62071705    -0.19200
F1128       F  0.13124491  0.58689548  0.64014989    -0.22600
F1129       F  0.07766524  0.03350773  0.63650826    -0.24100
F1130       F  0.12601292  0.07525345  0.60807035    -0.18100
F1131       F  0.15725199  0.59111689  0.74215499    -0.20500
F1132       F  0.11527520  0.61146800  0.72393811    -0.21700
F1133       F  0.17565894  0.62546713  0.70572092    -0.18900
F1134       F  0.00244111  0.90206091  0.67095569    -0.19000
F1135       F  0.06280456  0.90658181  0.65848919    -0.22800
F1136       F  0.03880838  0.94435923  0.63890715    -0.24400
C1137       C  0.50217250  0.00669152  0.77249440     0.46100
H1138       H  0.50335691  0.00533646  0.79315840    -0.02900
C1139       C  0.50114754  0.51108271  0.72381905     0.46200
H1140       H  0.49846021  0.50977889  0.70311368    -0.02900
C1141       C  0.97737220  0.48352486  0.76334637    -0.16600
C1142       C  0.49865610  0.04388555  0.76216421    -0.16400
C1143       C  0.54172499  0.01099218  0.75973744    -0.16700
C1144       C  0.97092109  0.48164030  0.73796129    -0.16700
C1145       C  0.49483603  0.04307488  0.73654872    -0.16300
C1146       C  0.53824360  0.00984286  0.73412351    -0.16600
O1147       O  0.72940983  0.10073390  0.96530095    -0.77800
C1148       C  0.73957119  0.17762391  0.03432670     0.83200
O1149       O  0.84334573  0.25494013  0.96520780    -0.79000
O1150       O  0.87746169  0.21473125  0.04761717    -0.80400
O1151       O  0.81094300  0.07789686  0.01610198    -0.80200
O1152       O  0.77824841  0.08210735  0.96125654    -0.78900
Zn1153     Zn  0.76335038  0.15795280  0.98377955     1.55700
O1154       O  0.80341336  0.10929265  0.04955852    -0.80300
Cd1155     Cd  0.82375265  0.11938281  0.98685043     1.59700
Cd1156     Cd  0.86459123  0.22061917  0.98508236     1.59600
O1157       O  0.88395282  0.14249794  0.97207497    -0.80300
O1158       O  0.81623743  0.16623349  0.99748104    -1.90800
Cd1159     Cd  0.81752220  0.16752335  0.03477942     1.59900
O1160       O  0.90389188  0.20961897  0.96384292    -0.80200
O1161       O  0.77139012  0.18024496  0.04587837    -0.78900
C1162       C  0.80593267  0.24328706  0.95729176     0.83700
C1163       C  0.74119881  0.07582541  0.95712158     0.83300
O1164       O  0.73103629  0.16594475  0.01158770    -0.77800
C1165       C  0.80225270  0.07770505  0.03914921     0.84100
O1166       O  0.77421032  0.20637779  0.96134233    -0.77900
C1167       C  0.91012349  0.17886966  0.96311915     0.84300
C1168       C  0.90821796  0.24660307  0.03662475     0.84600
O1169       O  0.90626777  0.25477479  0.01369068    -0.80300
C1170       C  0.81119053  0.32491301  0.91432199     0.80900
N1171       N  0.81869240  0.29544943  0.92442988    -0.77400
C1172       C  0.79767822  0.27416953  0.94538693     0.83300
N1173       N  0.76917349  0.28234118  0.95613976    -0.77400
C1174       C  0.76246386  0.31245002  0.94658931     0.83400
N1175       N  0.78332534  0.33352041  0.92563656    -0.79100
O1176       O  0.65437578  0.24875602  0.01311904    -0.77800
C1177       C  0.56373837  0.25885314  0.96080315     0.83200
O1178       O  0.74528987  0.35875213  0.96702487    -0.79000
O1179       O  0.63288927  0.40070495  0.97017599    -0.80400
O1180       O  0.59654461  0.31864148  0.04931458    -0.80200
O1181       O  0.66882035  0.28748854  0.04771349    -0.78900
Zn1182     Zn  0.64744063  0.28153273  0.98565729     1.55700
O1183       O  0.56830040  0.33273979  0.01642105    -0.80300
Cd1184     Cd  0.65640893  0.33358935  0.03594515     1.59700
Cd1185     Cd  0.71099677  0.38116635  0.98590868     1.59600
O1186       O  0.70353460  0.39286508  0.04883648    -0.80300
O1187       O  0.65616647  0.33400593  0.99867763    -1.90800
Cd1188     Cd  0.60970014  0.34286579  0.98766719     1.59900
O1189       O  0.74397409  0.42190593  0.01486756    -0.80200
O1190       O  0.56956455  0.29538544  0.96441586    -0.78900
C1191       C  0.73258847  0.32151881  0.95913695     0.83700
C1192       C  0.66566575  0.25604311  0.03592869     0.83300
O1193       O  0.59005058  0.24820981  0.96821598    -0.77800
C1194       C  0.56603345  0.32031833  0.03886079     0.84100
O1195       O  0.69503264  0.29073909  0.96313923    -0.77900
C1196       C  0.73542357  0.42352938  0.03776806     0.84300
C1197       C  0.66956585  0.42570421  0.96086979     0.84600
O1198       O  0.70070671  0.41976071  0.96304302    -0.80300
C1199       C  0.68255829  0.19554780  0.08473310     0.80900
N1200       N  0.70517601  0.18193574  0.07207694    -0.77400
C1201       C  0.71316569  0.19048141  0.04744936     0.83300
N1202       N  0.69897902  0.21339721  0.03552065    -0.77400
C1203       C  0.67774865  0.22855434  0.04842975     0.83400
N1204       N  0.66956380  0.21958899  0.07306768    -0.79100
C1205       C  0.67535104  0.99443891  0.90979041     0.80900
N1206       N  0.69908739  0.03302952  0.92089756    -0.77400
C1207       C  0.71077330  0.03556335  0.94528055     0.83300
N1208       N  0.70015835  0.99976306  0.95805179    -0.77400
C1209       C  0.67733051  0.46367598  0.94793988     0.83400
N1210       N  0.66388571  0.46146153  0.92416738    -0.79100
C1211       C  0.98583413  0.30442188  0.08744545     0.80900
N1212       N  0.94834691  0.28108376  0.07496570    -0.77400
C1213       C  0.94843009  0.27348883  0.05017763     0.83300
N1214       N  0.98626552  0.28911649  0.03802104    -0.77400
C1215       C  0.52576825  0.30521008  0.05235204     0.83400
N1216       N  0.52553227  0.30914929  0.07750855    -0.79100
C1217       C  0.48346800  0.18153392  0.91708911     0.80900
N1218       N  0.94965120  0.16913088  0.93026462    -0.77400
C1219       C  0.94982798  0.18694435  0.95225605     0.83300
N1220       N  0.48673705  0.21959998  0.96081656    -0.77400
C1221       C  0.52336501  0.22767392  0.94966016     0.83400
N1222       N  0.52183302  0.20886693  0.92771835    -0.79100
C1223       C  0.79472198  0.50262411  0.08728552     0.80900
N1224       N  0.77196877  0.46484536  0.07538941    -0.77400
C1225       C  0.76148279  0.46368111  0.05093219     0.83300
N1226       N  0.77401348  0.50032161  0.03849443    -0.77400
C1227       C  0.78892827  0.03890781  0.05357016     0.83400
N1228       N  0.79866702  0.04040843  0.07816731    -0.79100
O1229       O  0.76047468  0.16424021  0.48541285    -0.77800
C1230       C  0.76610376  0.07105430  0.53868408     0.83200
O1231       O  0.86670205  0.25285736  0.53283670    -0.79000
O1232       O  0.91272496  0.14594454  0.53197120    -0.80400
O1233       O  0.83332330  0.10384923  0.45163385    -0.80200
O1234       O  0.79779930  0.17346787  0.45050275    -0.78900
Zn1235     Zn  0.79029577  0.15513488  0.51411980     1.55700
O1236       O  0.84838653  0.07939531  0.48587865    -0.80300
Cd1237     Cd  0.84440852  0.16225735  0.46417988     1.59700
Cd1238     Cd  0.88942300  0.21966700  0.51356083     1.59600
O1239       O  0.90455677  0.20929904  0.45211466    -0.80300
O1240       O  0.84342957  0.16371599  0.50158792    -1.90800
Cd1241     Cd  0.85376905  0.11938938  0.51418158     1.59900
O1242       O  0.93005703  0.25274935  0.48498114    -0.80200
O1243       O  0.80378085  0.07790508  0.53639983    -0.78900
C1244       C  0.82962485  0.23908524  0.54189514     0.83700
C1245       C  0.76731007  0.17315974  0.46222260     0.83300
O1246       O  0.75537601  0.09681124  0.53050879    -0.77800
C1247       C  0.83731547  0.07568449  0.46303270     0.84100
O1248       O  0.79900940  0.20147082  0.53802182    -0.77900
C1249       C  0.93372351  0.24257088  0.46286724     0.84300
C1250       C  0.93794652  0.18368435  0.53938359     0.84600
O1251       O  0.93072296  0.21336267  0.53586271    -0.80300
C1252       C  0.82510011  0.30556781  0.59216814     0.80900
N1253       N  0.83542767  0.28034369  0.57931850    -0.77400
C1254       C  0.82065578  0.26784574  0.55573305     0.83300
N1255       N  0.79626203  0.28127963  0.54486840    -0.77400
C1256       C  0.78574367  0.30649235  0.55740116     0.83400
N1257       N  0.79968991  0.31818764  0.58128268    -0.79100
O1258       O  0.77365030  0.39751985  0.47507644    -0.77800
C1259       C  0.75966243  0.32055276  0.54436031     0.83200
O1260       O  0.66113009  0.24217189  0.47302607    -0.79000
O1261       O  0.62107921  0.28632507  0.55174095    -0.80400
O1262       O  0.68259336  0.41601827  0.51623300    -0.80200
O1263       O  0.72355309  0.41258504  0.46522476    -0.78900
Zn1264     Zn  0.73835391  0.33956616  0.49214774     1.55700
O1265       O  0.69496201  0.39117406  0.55140985    -0.80300
Cd1266     Cd  0.67453120  0.37415175  0.48870734     1.59700
Cd1267     Cd  0.63719943  0.27523431  0.49058453     1.59600
O1268       O  0.61557453  0.34884009  0.47075848    -0.80300
O1269       O  0.68404930  0.33028871  0.50295039    -1.90800
Cd1270     Cd  0.68248935  0.33173991  0.54030187     1.59900
O1271       O  0.59734241  0.28158041  0.46641498    -0.80200
O1272       O  0.72806452  0.31935106  0.55531547    -0.78900
C1273       C  0.69873477  0.25551114  0.46498179     0.83700
C1274       C  0.76188012  0.42094226  0.46451247     0.83300
O1275       O  0.76788342  0.33061345  0.52136513    -0.77800
C1276       C  0.69288497  0.41981929  0.53921448     0.84100
O1277       O  0.72967744  0.29283285  0.46909706    -0.77900
C1278       C  0.59043113  0.31148085  0.46274230     0.84300
C1279       C  0.59100420  0.25387553  0.54077504     0.84600
O1280       O  0.59470440  0.24318577  0.51877931    -0.80300
C1281       C  0.68737561  0.99223823  0.58277880     0.80900
N1282       N  0.71416336  0.02982305  0.57143474    -0.77400
C1283       C  0.73417262  0.03086591  0.54995748     0.83300
N1284       N  0.72668925  0.99420535  0.53958422    -0.77400
C1285       C  0.70444799  0.45974631  0.55126298     0.83400
N1286       N  0.68738103  0.46044391  0.57354456    -0.79100
C1287       C  0.50743027  0.20471019  0.58921319     0.80900
N1288       N  0.97532966  0.18719998  0.57728511    -0.77400
C1289       C  0.97690918  0.19435404  0.55255147     0.83300
N1290       N  0.51318793  0.21390206  0.53885941    -0.77400
C1291       C  0.54930588  0.22952444  0.55289508     0.83400
N1292       N  0.54631703  0.22480535  0.57808609    -0.79100
C1293       C  0.01259490  0.31369992  0.41657050     0.80900
N1294       N  0.55297178  0.31453583  0.42573573    -0.77400
C1295       C  0.55128645  0.30141659  0.44955697     0.83300
N1296       N  0.01127339  0.27957524  0.46154108    -0.77400
C1297       C  0.97407669  0.26959015  0.45011641     0.83400
N1298       N  0.97479173  0.28621664  0.42750766    -0.79100
C1299       C  0.69876123  0.18558073  0.41605641     0.80900
N1300       N  0.72461753  0.17322815  0.42645145    -0.77400
C1301       C  0.74097329  0.18695759  0.44967689     0.83300
N1302       N  0.73232052  0.21366695  0.46202069    -0.77400
C1303       C  0.70737640  0.22661932  0.45145575     0.83400
N1304       N  0.69029408  0.21226829  0.42859775    -0.79100
C1305       C  0.82517865  0.49580212  0.41456643     0.80900
N1306       N  0.83569066  0.03535458  0.42593733    -0.77400
C1307       C  0.82629475  0.03608248  0.45040801     0.83300
N1308       N  0.80486353  0.49759195  0.46286781    -0.77400
C1309       C  0.79280247  0.46000671  0.45185012     0.83400
N1310       N  0.80271124  0.45916341  0.42758245    -0.79100
C1311       C  0.99654487  0.49297853  0.22508950     0.46100
H1312       H  0.00008583  0.49404245  0.20449437    -0.02900
C1313       C  0.49335987  0.48632992  0.27211387     0.46200
H1314       H  0.48968554  0.48690154  0.29270601    -0.02900
C1315       C  0.53922460  0.04051201  0.23734452    -0.16600
C1316       C  0.95427155  0.48838794  0.23332271    -0.16400
C1317       C  0.99802311  0.45644362  0.23822871    -0.16700
C1318       C  0.53399840  0.04031656  0.26274400    -0.16700
C1319       C  0.95058220  0.48923929  0.25879163    -0.16300
C1320       C  0.99571904  0.45812301  0.26388026    -0.16600
C1321       C  0.87850683  0.48887368  0.35628137    -0.11200
C1322       C  0.85850390  0.99624208  0.33888628     0.11400
C1323       C  0.83182728  0.01202484  0.34490509    -0.03000
C1324       C  0.82166427  0.01261769  0.37016301    -0.05800
C1325       C  0.83590530  0.49498649  0.38839176    -0.16500
C1326       C  0.86840385  0.48711022  0.38159710     0.02400
C1327       C  0.87482972  0.99826547  0.31354781     0.12300
C1328       C  0.81485347  0.02828218  0.32468068     0.62900
H1329       H  0.80189124  0.02524118  0.37546733     0.12400
C1330       C  0.89336019  0.47861785  0.40104872     0.55100
H1331       H  0.90373629  0.48360940  0.35048019     0.08100
C1332       C  0.91597775  0.03106322  0.30661015    -0.05700
C1333       C  0.93540327  0.02474204  0.28610303    -0.06400
C1334       C  0.91871586  0.49489970  0.27269044    -0.16000
C1335       C  0.87609144  0.46197549  0.27744203    -0.01600
C1336       C  0.85406800  0.46683370  0.29739757    -0.09100
C1337       C  0.94262623  0.07192157  0.32105212     0.65200
H1338       H  0.96791512  0.04830023  0.28216457     0.10600
C1339       C  0.85470035  0.42087865  0.26310330     0.63600
H1340       H  0.82315644  0.44079455  0.30305015     0.08000
F1341       F  0.92442305  0.47296397  0.39028980    -0.19500
F1342       F  0.86613037  0.44247988  0.41435869    -0.15700
F1343       F  0.91321283  0.51241745  0.41730134    -0.19200
F1344       F  0.79125513  0.99640683  0.30770527    -0.22600
F1345       F  0.84838934  0.06187044  0.31233520    -0.24100
F1346       F  0.78888623  0.04175774  0.33439356    -0.18100
F1347       F  0.84978228  0.42835400  0.23845345    -0.20500
F1348       F  0.81458963  0.39237041  0.27239169    -0.21700
F1349       F  0.87896138  0.40240937  0.26471143    -0.18900
F1350       F  0.95424950  0.10572603  0.30516792    -0.19000
F1351       F  0.97921072  0.07384038  0.32976390    -0.22800
F1352       F  0.92167968  0.07617662  0.34120823    -0.24400
C1353       C  0.61493779  0.12797917  0.36637210    -0.11200
C1354       C  0.64032594  0.13725846  0.34504207     0.11400
C1355       C  0.68510332  0.16376787  0.34673527    -0.03000
C1356       C  0.70339377  0.17880178  0.37042838    -0.05800
C1357       C  0.67793424  0.16850614  0.39188670    -0.16500
C1358       C  0.63302403  0.14266728  0.38999558     0.02400
C1359       C  0.61860116  0.11509112  0.32183317     0.12300
C1360       C  0.71299491  0.17643936  0.32360090     0.62900
H1361       H  0.73762274  0.19906722  0.37237964     0.12400
C1362       C  0.60445703  0.12902066  0.41291944     0.55100
H1363       H  0.58069687  0.10772113  0.36439155     0.08100
C1364       C  0.60679324  0.07262921  0.31819522    -0.05700
C1365       C  0.58085380  0.05101822  0.29782173    -0.06400
C1366       C  0.56548150  0.06975735  0.28129095    -0.16000
C1367       C  0.57712060  0.11239198  0.28505123    -0.01600
C1368       C  0.60472414  0.13472307  0.30502533    -0.09100
C1369       C  0.61991271  0.04949966  0.33632225     0.65200
H1370       H  0.57130982  0.01836141  0.29495541     0.10600
C1371       C  0.56006613  0.13532449  0.26998751     0.63600
H1372       H  0.61345372  0.16709209  0.30849691     0.08000
F1373       F  0.61848839  0.11108032  0.43029144    -0.19500
F1374       F  0.56251437  0.09945607  0.40709344    -0.15700
F1375       F  0.60520427  0.16346358  0.42344908    -0.19200
F1376       F  0.70256968  0.19941202  0.30780427    -0.22600
F1377       F  0.70680529  0.14103647  0.31111944    -0.24100
F1378       F  0.75586679  0.20105936  0.32950480    -0.18100
F1379       F  0.52695800  0.10911525  0.25437715    -0.20500
F1380       F  0.59271671  0.16651844  0.25580501    -0.21700
F1381       F  0.54498853  0.15394800  0.28603269    -0.18900
F1382       F  0.60826153  0.00964024  0.32779072    -0.19000
F1383       F  0.60044758  0.04485074  0.35916819    -0.22800
F1384       F  0.66361889  0.07188455  0.33959801    -0.24400
C1385       C  0.02393536  0.39131475  0.36692138    -0.11200
C1386       C  0.99974396  0.36349098  0.34771944     0.11400
C1387       C  0.48981899  0.30684301  0.34577719    -0.03000
C1388       C  0.49592647  0.29235048  0.36876479    -0.05800
C1389       C  0.01221812  0.33240238  0.39254131    -0.16500
C1390       C  0.03076135  0.37647456  0.38949793     0.02400
C1391       C  0.99468130  0.38199104  0.32469288     0.12300
C1392       C  0.46748986  0.27626785  0.32438898     0.62900
H1393       H  0.48319326  0.25894638  0.37175177     0.12400
C1394       C  0.05668239  0.40751268  0.41007063     0.55100
H1395       H  0.03739111  0.42485191  0.36398046     0.08100
C1396       C  0.96306576  0.39266807  0.32232054    -0.05700
C1397       C  0.96346024  0.41452585  0.30092133    -0.06400
C1398       C  0.99615669  0.42895500  0.28294454    -0.16000
C1399       C  0.53193690  0.41076552  0.28348131    -0.01600
C1400       C  0.52926333  0.38304501  0.30224172    -0.09100
C1401       C  0.93087983  0.38366066  0.34293253     0.65200
H1402       H  0.93899601  0.42242579  0.29867405     0.10600
C1403       C  0.57222386  0.43129330  0.26783618     0.63600
H1404       H  0.55414762  0.37550411  0.30386735     0.08000
F1405       F  0.06805400  0.44841351  0.40392152    -0.19500
F1406       F  0.59432512  0.39658030  0.41268161    -0.15700
F1407       F  0.03324109  0.39666990  0.43193507    -0.19200
F1408       F  0.49405321  0.28874040  0.30381243    -0.22600
F1409       F  0.92453497  0.29205798  0.32169582    -0.24100
F1410       F  0.45673475  0.23557959  0.33062910    -0.18100
F1411       F  0.60730412  0.44216373  0.28281791    -0.20500
F1412       F  0.58027183  0.97654369  0.25214723    -0.21700
F1413       F  0.56945104  0.40307794  0.24996150    -0.18900
F1414       F  0.90030763  0.39290354  0.33551563    -0.19000
F1415       F  0.95177507  0.40811560  0.36356554    -0.22800
F1416       F  0.91004939  0.34160806  0.34974922    -0.24400
C1417       C  0.88166820  0.46616788  0.17723887    -0.11200
C1418       C  0.87196235  0.99587427  0.17880177     0.11400
C1419       C  0.88887947  0.02308661  0.19958704    -0.03000
C1420       C  0.91380455  0.01636701  0.21691876    -0.05800
C1421       C  0.92513425  0.49026079  0.21474434    -0.16500
C1422       C  0.90560547  0.45997940  0.19528783     0.02400
C1423       C  0.85064508  0.00363431  0.15772239     0.12300
C1424       C  0.87996340  0.05843826  0.20351327     0.62900
H1425       H  0.92883797  0.03814207  0.23226408     0.12400
C1426       C  0.90900766  0.42088167  0.19327026     0.55100
H1427       H  0.86752042  0.44430852  0.16179387     0.08100
C1428       C  0.87365347  0.02475426  0.13590545    -0.05700
C1429       C  0.85116461  0.02674391  0.11527244    -0.06400
C1430       C  0.81453077  0.50516156  0.11153927    -0.16000
C1431       C  0.79101834  0.48836592  0.13378116    -0.01600
C1432       C  0.81320308  0.49010359  0.15567505    -0.09100
C1433       C  0.92145722  0.04310093  0.13389974     0.65200
H1434       H  0.86808216  0.04187606  0.09819737     0.10600
C1435       C  0.74312601  0.46944415  0.13431210     0.63600
H1436       H  0.79594567  0.47608230  0.17283541     0.08000
F1437       F  0.94855431  0.43147939  0.18422480    -0.19500
F1438       F  0.87866973  0.39130319  0.17718722    -0.15700
F1439       F  0.90252515  0.40191716  0.21628881    -0.19200
F1440       F  0.83654858  0.04140063  0.20624173    -0.22600
F1441       F  0.89398450  0.08555947  0.18326386    -0.24100
F1442       F  0.90005076  0.08175738  0.22469011    -0.18100
F1443       F  0.72335993  0.43437412  0.11902016    -0.20500
F1444       F  0.73355225  0.49904457  0.12596073    -0.21700
F1445       F  0.72676057  0.45714463  0.15817867    -0.18900
F1446       F  0.93778171  0.06459318  0.11163010    -0.19000
F1447       F  0.93032004  0.01106208  0.13516213    -0.22800
F1448       F  0.94214042  0.07104484  0.15317200    -0.24400
C1449       C  0.98524415  0.35902679  0.20412215    -0.11200
C1450       C  0.01320493  0.37954332  0.18428097     0.11400
C1451       C  0.54331989  0.40805798  0.18797804    -0.03000
C1452       C  0.53793949  0.43294983  0.20533706    -0.05800
C1453       C  0.00472902  0.42662882  0.22281779    -0.16500
C1454       C  0.97907509  0.38156081  0.22308314     0.02400
C1455       C  0.00375819  0.35607701  0.16062244     0.12300
C1456       C  0.57938629  0.43035133  0.16927661     0.62900
H1457       H  0.55882533  0.46672842  0.20415202     0.12400
C1458       C  0.94315610  0.35495058  0.24117220     0.55100
H1459       H  0.96462354  0.32498285  0.20322907     0.08100
C1460       C  0.02078633  0.33065190  0.15450522    -0.05700
C1461       C  0.01244038  0.31235082  0.13061844    -0.06400
C1462       C  0.98678474  0.31800567  0.11336378    -0.16000
C1463       C  0.47522639  0.33527443  0.12187293    -0.01600
C1464       C  0.48278494  0.35183081  0.14600884    -0.09100
C1465       C  0.04820492  0.32389660  0.17295635     0.65200
H1466       H  0.02659155  0.29415936  0.12499688     0.10600
C1467       C  0.45484814  0.34993567  0.10267682     0.63600
H1468       H  0.47372383  0.37451173  0.15100104     0.08000
F1469       F  0.95697961  0.33672745  0.25844651    -0.19500
F1470       F  0.90846475  0.32310253  0.22847510    -0.15700
F1471       F  0.92881108  0.37758486  0.25347028    -0.19200
F1472       F  0.57183393  0.45622185  0.15417047    -0.22600
F1473       F  0.58417849  0.40266499  0.15432697    -0.24100
F1474       F  0.61731827  0.45492487  0.18200007    -0.18100
F1475       F  0.44831303  0.38098741  0.11208160    -0.20500
F1476       F  0.41565167  0.31629828  0.09552261    -0.21700
F1477       F  0.48092625  0.36638819  0.08194819    -0.18900
F1478       F  0.06278003  0.29912579  0.16301397    -0.19000
F1479       F  0.02460591  0.30395487  0.19408440    -0.22800
F1480       F  0.08318483  0.36234148  0.17967933    -0.24400
C1481       C  0.62008321  0.12201466  0.13726997    -0.11200
C1482       C  0.63311886  0.15009418  0.15738130     0.11400
C1483       C  0.66476330  0.19306229  0.15411630    -0.03000
C1484       C  0.68064215  0.20720194  0.12990692    -0.05800
C1485       C  0.66674952  0.17909079  0.10971756    -0.16500
C1486       C  0.63625411  0.13579538  0.11327142     0.02400
C1487       C  0.61325980  0.13192469  0.18162236     0.12300
C1488       C  0.68192263  0.22328710  0.17606330     0.62900
H1489       H  0.70420692  0.24010957  0.12654836     0.12400
C1490       C  0.61990794  0.10450575  0.09172900     0.55100
H1491       H  0.59662309  0.08904400  0.14060663     0.08100
C1492       C  0.57116333  0.12136601  0.18686915    -0.05700
C1493       C  0.54987200  0.09398935  0.20684210    -0.06400
C1494       C  0.56933294  0.07737981  0.22183503    -0.16000
C1495       C  0.61273531  0.09039955  0.21734016    -0.01600
C1496       C  0.63365094  0.11722641  0.19705085    -0.09100
C1497       C  0.54793825  0.13690440  0.17061878     0.65200
H1498       H  0.51654179  0.08311076  0.20995062     0.10600
C1499       C  0.63844993  0.07585634  0.23167451     0.63600
H1500       H  0.66571377  0.12499257  0.19231416     0.08000
F1501       F  0.58719536  0.06500331  0.09907987    -0.19500
F1502       F  0.65253143  0.09995146  0.08248698    -0.15700
F1503       F  0.60449636  0.11872504  0.07286586    -0.19200
F1504       F  0.70067717  0.20965495  0.19312066    -0.22600
F1505       F  0.64920169  0.22499387  0.18767909    -0.24100
F1506       F  0.71228681  0.26377760  0.16863502    -0.18100
F1507       F  0.64664111  0.05068961  0.21646476    -0.20500
F1508       F  0.67682321  0.11064219  0.23896699    -0.21700
F1509       F  0.61833127  0.05364652  0.25274393    -0.18900
F1510       F  0.50863032  0.12564085  0.18055058    -0.19000
F1511       F  0.54159064  0.11984880  0.14694091    -0.22800
F1512       F  0.57150796  0.18038167  0.16880577    -0.24400
C1513       C  0.87025325  0.40644155  0.86325947    -0.11200
C1514       C  0.87001072  0.38071343  0.84403136     0.11400
C1515       C  0.85053175  0.33670033  0.84784926    -0.03000
C1516       C  0.83148819  0.31980978  0.87110631    -0.05800
C1517       C  0.83132054  0.34549260  0.89035408    -0.16500
C1518       C  0.85061172  0.38959142  0.88636300     0.02400
C1519       C  0.89394030  0.40178653  0.82100501     0.12300
C1520       C  0.85045345  0.30787734  0.82764159     0.62900
H1521       H  0.81661177  0.28622274  0.87448865     0.12400
C1522       C  0.85160489  0.41907286  0.90643117     0.55100
H1523       H  0.88632741  0.44014943  0.85996433     0.08100
C1524       C  0.87885502  0.41920295  0.80307865    -0.05700
C1525       C  0.90641586  0.44398066  0.78368939    -0.06400
C1526       C  0.94778193  0.45099647  0.78152986    -0.16000
C1527       C  0.96127983  0.43067225  0.79850646    -0.01600
C1528       C  0.93457065  0.40757494  0.81842861    -0.09100
C1529       C  0.83428105  0.41229667  0.80470930     0.65200
H1530       H  0.89665051  0.45996843  0.77090918     0.10600
C1531       C  0.00405830  0.43399930  0.79665167     0.63600
H1532       H  0.94586108  0.39472606  0.83265020     0.08000
F1533       F  0.81094235  0.41162046  0.91024109    -0.19500
F1534       F  0.87742929  0.46108113  0.89976441    -0.15700
F1535       F  0.86721549  0.41272557  0.92852615    -0.19200
F1536       F  0.89141841  0.31616015  0.82393501    -0.22600
F1537       F  0.83516605  0.31435560  0.80547740    -0.24100
F1538       F  0.82496048  0.26570210  0.83403272    -0.18100
F1539       F  0.03440967  0.47034370  0.80847746    -0.20500
F1540       F  0.01490161  0.43423845  0.77195469    -0.21700
F1541       F  0.00330717  0.39998920  0.80809205    -0.18900
F1542       F  0.82480219  0.42880873  0.78415137    -0.19000
F1543       F  0.83060014  0.43155711  0.82583295    -0.22800
F1544       F  0.80454882  0.36955104  0.80582504    -0.24400
C1545       C  0.51258622  0.13527121  0.80318799    -0.11200
C1546       C  0.48348716  0.11137554  0.82189428     0.11400
C1547       C  0.96335888  0.06636716  0.82275370    -0.03000
C1548       C  0.96865664  0.04658733  0.80214321    -0.05800
C1549       C  0.49302080  0.07131055  0.78011843    -0.16500
C1550       C  0.51895444  0.11617357  0.78239884     0.02400
C1551       C  0.48563084  0.13194979  0.84564973     0.12300
C1552       C  0.93220516  0.04025904  0.84335928     0.62900
H1553       H  0.94986317  0.01254228  0.80103228     0.12400
C1554       C  0.55491582  0.14622174  0.76526310     0.55100
H1555       H  0.53272717  0.16910568  0.80583101     0.08100
C1556       C  0.51524651  0.13703679  0.86434355    -0.05700
C1557       C  0.51314695  0.15334547  0.88743329    -0.06400
C1558       C  0.48197702  0.16357364  0.89239639    -0.16000
C1559       C  0.95694744  0.15936462  0.87463995    -0.01600
C1560       C  0.95936760  0.14306701  0.85153497    -0.09100
C1561       C  0.54830067  0.12451748  0.86009597     0.65200
H1562       H  0.53548909  0.15751116  0.90206005     0.10600
C1563       C  0.92298730  0.17082018  0.87849074     0.63600
H1564       H  0.93615790  0.13686151  0.83702882     0.08000
F1565       F  0.59163063  0.17024600  0.77918408    -0.19500
F1566       F  0.54408363  0.17302806  0.75387939    -0.15700
F1567       F  0.56435957  0.12645290  0.74707880    -0.19200
F1568       F  0.90075971  0.05025432  0.84507724    -0.22600
F1569       F  0.95306195  0.04820530  0.86605695    -0.24100
F1570       F  0.91274386  0.99751825  0.83871430    -0.18100
F1571       F  0.90355694  0.17060127  0.85621956    -0.20500
F1572       F  0.94110098  0.21092614  0.88850985    -0.21700
F1573       F  0.89169792  0.14191101  0.89436307    -0.18900
F1574       F  0.57301335  0.13101438  0.88113964    -0.19000
F1575       F  0.57523398  0.14822074  0.84084299    -0.22800
F1576       F  0.52820936  0.08218566  0.85408128    -0.24400
C1577       C  0.62255608  0.53807602  0.81244933    -0.11200
C1578       C  0.62954313  0.00093501  0.80877912     0.11400
C1579       C  0.61225837  0.97373072  0.78794559    -0.03000
C1580       C  0.58678162  0.98025029  0.77091348    -0.05800
C1581       C  0.57677256  0.01179344  0.77478928    -0.16500
C1582       C  0.60086107  0.54625041  0.79408673     0.02400
C1583       C  0.64512125  0.99093524  0.83175106     0.12300
C1584       C  0.61844661  0.93687388  0.78339224     0.62900
H1585       H  0.57272433  0.95889821  0.75527281     0.12400
C1586       C  0.59987079  0.58626460  0.79671250     0.55100
H1587       H  0.63410498  0.55792210  0.82893872     0.08100
C1588       C  0.68759533  0.01685587  0.84027538    -0.05700
C1589       C  0.69631275  0.01644245  0.86583121    -0.06400
C1590       C  0.66397747  0.99126512  0.88298002    -0.16000
C1591       C  0.62061453  0.46665951  0.87607369    -0.01600
C1592       C  0.61197035  0.46683365  0.85052505    -0.09100
C1593       C  0.72421246  0.04663033  0.82340072     0.65200
H1594       H  0.72865254  0.03669968  0.87254897     0.10600
C1595       C  0.58420765  0.43927811  0.89383705     0.63600
H1596       H  0.57952587  0.44798036  0.84372933     0.08000
F1597       F  0.59827211  0.60123944  0.77359822    -0.19500
F1598       F  0.14903675  0.63211917  0.80437094    -0.15700
F1599       F  0.07849134  0.59349365  0.81143075    -0.19200
F1600       F  0.57985346  0.89957095  0.78633455    -0.22600
F1601       F  0.64793225  0.93663227  0.79947242    -0.24100
F1602       F  0.63270063  0.93894330  0.75921038    -0.20500
F1603       F  0.58402089  0.46334396  0.91352375    -0.20500
F1604       F  0.58884203  0.40687180  0.90296965    -0.21700
F1605       F  0.54489306  0.42136067  0.88211272    -0.18900
F1606       F  0.75746848  0.03936517  0.82623193    -0.19000
F1607       F  0.73824576  0.08785764  0.83013868    -0.22800
F1608       F  0.71301790  0.04153392  0.79840386    -0.24400
C1609       C  0.88542564  0.41303803  0.69005871    -0.11200
C1610       C  0.89059886  0.37825001  0.68885018     0.11400
C1611       C  0.91741526  0.37444550  0.70640328    -0.03000
C1612       C  0.94038974  0.40750971  0.72365681    -0.05800
C1613       C  0.93752155  0.44400505  0.72371591    -0.16500
C1614       C  0.90750555  0.44559594  0.70743275     0.02400
C1615       C  0.87338927  0.35169122  0.66606087     0.12300
C1616       C  0.92210236  0.33602234  0.70668935     0.62900
H1617       H  0.96274954  0.40617169  0.73627543     0.12400
C1618       C  0.89739441  0.48045143  0.70825089     0.55100
H1619       H  0.86482734  0.41518826  0.67632432     0.08100
C1620       C  0.82907451  0.32370549  0.66212663    -0.05700
C1621       C  0.81450426  0.30879616  0.63771645    -0.06400
C1622       C  0.84278692  0.32055250  0.61750060    -0.16000
C1623       C  0.88712332  0.34758866  0.62158730    -0.01600
C1624       C  0.90157131  0.36285316  0.64584338    -0.09100
C1625       C  0.79742113  0.30913963  0.68358795     0.65200
H1626       H  0.78078863  0.28781711  0.63415918     0.10600
C1627       C  0.91889437  0.36183584  0.60022891     0.63600
H1628       H  0.93508037  0.38533244  0.64908225     0.08000
F1629       F  0.86478433  0.47324174  0.69201894    -0.19500
F1630       F  0.93256757  0.51829096  0.70156206    -0.15700
F1631       F  0.89163304  0.97711405  0.73103204    -0.19200
F1632       F  0.93758428  0.33190577  0.68404059    -0.22600
F1633       F  0.88287666  0.30023054  0.71100864    -0.24100
F1634       F  0.94976050  0.33866660  0.72526817    -0.18100
F1635       F  0.90662758  0.37868192  0.58115994    -0.20500
F1636       F  0.92067705  0.32778464  0.59124557    -0.21700
F1637       F  0.95956030  0.39241079  0.60770568    -0.18900
F1638       F  0.75583187  0.28373634  0.67537749    -0.19000
F1639       F  0.80004597  0.34324147  0.69581838    -0.22800
F1640       F  0.80606986  0.28607261  0.70035793    -0.24400
C1641       C  0.47335933  0.12283433  0.70365073    -0.11200
C1642       C  0.50222530  0.13415252  0.68393874     0.11400
C1643       C  0.53070293  0.11930778  0.68308992    -0.03000
C1644       C  0.52681874  0.09050929  0.70122094    -0.05800
C1645       C  0.49577732  0.07607798  0.72013834    -0.16500
C1646       C  0.46807738  0.09243383  0.72136499     0.02400
C1647       C  0.99999273  0.15033425  0.66340455     0.12300
C1648       C  0.56365804  0.13205826  0.66242577     0.62900
H1649       H  0.54760580  0.07792030  0.70021961     0.12400
C1650       C  0.43035913  0.07736465  0.73878713     0.55100
H1651       H  0.45193029  0.13491370  0.70374962     0.08100
C1652       C  0.97324436  0.12503270  0.64375617    -0.05700
C1653       C  0.97751519  0.14396365  0.62057597    -0.06400
C1654       C  0.50260714  0.19109921  0.61534791    -0.16000
C1655       C  0.52866455  0.21701974  0.63510852    -0.01600
C1656       C  0.52516117  0.19806983  0.65846353    -0.09100
C1657       C  0.94211179  0.07780420  0.64678995     0.65200
H1658       H  0.95848873  0.12479128  0.60500795     0.10600
C1659       C  0.55950718  0.26403545  0.63174273     0.63600
H1660       H  0.54626148  0.21623562  0.67365439     0.08000
F1661       F  0.92639916  0.04195324  0.75652961    -0.19500
F1662       F  0.39431585  0.06753587  0.72503010    -0.15700
F1663       F  0.43840841  0.10929422  0.75533775    -0.19200
F1664       F  0.58922276  0.17550682  0.66132507    -0.22600
F1665       F  0.05233088  0.12010937  0.64294810    -0.24100
F1666       F  0.09588819  0.11614602  0.67068956    -0.18100
F1667       F  0.57610082  0.28387501  0.65438563    -0.20500
F1668       F  0.53857315  0.28233902  0.62089355    -0.21700
F1669       F  0.59317156  0.27096306  0.61672167    -0.18900
F1670       F  0.91907843  0.05969945  0.62514867    -0.19000
F1671       F  0.91336187  0.07072059  0.66559829    -0.22800
F1672       F  0.96397903  0.05763268  0.65267314    -0.24400
C1673       C  0.64509336  0.97167789  0.64918493    -0.11200
C1674       C  0.62581092  0.99591602  0.64966181     0.11400
C1675       C  0.63457376  0.52434127  0.62804741    -0.03000
C1676       C  0.65514896  0.52158990  0.60674850    -0.05800
C1677       C  0.66556840  0.99149895  0.60599121    -0.16500
C1678       C  0.66489973  0.96872065  0.62753220     0.02400
C1679       C  0.61254584  0.50306290  0.67282028     0.12300
C1680       C  0.61398015  0.55101398  0.62741408     0.62900
H1681       H  0.65514414  0.53732861  0.58964523     0.12400
C1682       C  0.68579602  0.94234429  0.62802969     0.55100
H1683       H  0.64422116  0.95487829  0.66600191     0.08100
C1684       C  0.57147528  0.46955104  0.67915687    -0.05700
C1685       C  0.55173317  0.47379997  0.70042718    -0.06400
C1686       C  0.56620329  0.00513481  0.71604743    -0.16000
C1687       C  0.60824108  0.03771971  0.70967495    -0.01600
C1688       C  0.62741872  0.03213284  0.68852421    -0.09100
C1689       C  0.54836893  0.43008232  0.66317607     0.65200
H1690       H  0.51985158  0.44889895  0.70529166     0.10600
C1691       C  0.63272897  0.07881373  0.72400187     0.63600
H1692       H  0.65956279  0.05605436  0.68323045     0.08000
F1693       F  0.66329186  0.90734918  0.61291007    -0.19500
F1694       F  0.68663343  0.92820642  0.65188789    -0.15700
F1695       F  0.72743980  0.96615342  0.61970341    -0.19200
F1696       F  0.63045000  0.08004828  0.64500535    -0.22600
F1697       F  0.57148237  0.52686779  0.63404292    -0.24100
F1698       F  0.61620519  0.56779784  0.60391266    -0.18100
F1699       F  0.64497066  0.07165217  0.74694396    -0.20500
F1700       F  0.60793474  0.09644571  0.72714106    -0.21700
F1701       F  0.66934488  0.10817135  0.71154958    -0.18900
F1702       F  0.50798775  0.40212014  0.67221858    -0.19000
F1703       F  0.57109497  0.40968099  0.66290110    -0.22800
F1704       F  0.54424453  0.44072733  0.63898283    -0.24400
C1705       C  0.50776296  0.51274827  0.77184207     0.46100
H1706       H  0.50971280  0.51226611  0.79252237    -0.02900
C1707       C  0.49645030  0.00607769  0.72447040     0.46200
H1708       H  0.49435562  0.00521021  0.70374658    -0.02900
C1709       C  0.96902915  0.96428357  0.76400574    -0.16600
C1710       C  0.50443714  0.54992071  0.76131683    -0.16400
C1711       C  0.54678063  0.51627255  0.75876817    -0.16700
C1712       C  0.96474875  0.96452771  0.73861012    -0.16700
C1713       C  0.50008835  0.54852625  0.73573524    -0.16300
C1714       C  0.54297634  0.51471353  0.73318552    -0.16600
O1715       O  0.73265480  0.60290991  0.96658202    -0.77800
C1716       C  0.73981326  0.67498682  0.03670428     0.83200
O1717       O  0.84638667  0.75818918  0.97164085    -0.79000
O1718       O  0.87907543  0.71040365  0.04993788    -0.80400
O1719       O  0.81794403  0.57959000  0.01426356    -0.80200
O1720       O  0.78134751  0.58434771  0.96130973    -0.78900
Zn1721     Zn  0.76640806  0.65925673  0.98575164     1.55700
O1722       O  0.80547942  0.60632753  0.04835240    -0.80300
Cd1723     Cd  0.82806240  0.62184014  0.98629546     1.59700
Cd1724     Cd  0.86773769  0.72172790  0.98803846     1.59600
O1725       O  0.88811711  0.64682108  0.97077667    -0.80300
O1726       O  0.81905864  0.66675197  0.99906352    -1.90800
Cd1727     Cd  0.81861500  0.66545046  0.03630719     1.59900
O1728       O  0.90626313  0.71377488  0.96415342    -0.80200
O1729       O  0.77120403  0.67684090  0.04847607    -0.78900
C1730       C  0.80959173  0.74684997  0.96285761     0.83700
C1731       C  0.74410122  0.57803178  0.95791036     0.83300
O1732       O  0.73288290  0.66526672  0.01363655    -0.77800
C1733       C  0.80741720  0.57694862  0.03712082     0.84100
O1734       O  0.77808993  0.70916253  0.96466036    -0.77900
C1735       C  0.91347294  0.68377703  0.96231497     0.84300
C1736       C  0.91129900  0.74152473  0.03936597     0.84600
O1737       O  0.91035571  0.75149787  0.01671684    -0.80300
C1738       C  0.81457710  0.82707581  0.91960008     0.80900
N1739       N  0.82197985  0.79794765  0.93004590    -0.77400
C1740       C  0.80225135  0.77847834  0.95156232     0.83300
N1741       N  0.77464804  0.78771863  0.96245724    -0.77400
C1742       C  0.76794556  0.81756543  0.95242512     0.83400
N1743       N  0.78768255  0.83705872  0.93084747    -0.79100
O1744       O  0.65617080  0.74850536  0.01508545    -0.77800
C1745       C  0.56617438  0.75970970  0.96280157     0.83200
O1746       O  0.74847570  0.86205424  0.97289187    -0.79000
O1747       O  0.63281865  0.90018722  0.97130177    -0.80400
O1748       O  0.59525703  0.81701149  0.05152955    -0.80200
O1749       O  0.66779762  0.78467408  0.05048122    -0.78900
Zn1750     Zn  0.64967691  0.78269390  0.98804700     1.55700
O1751       O  0.56940543  0.83444085  0.01880040    -0.80300
Cd1752     Cd  0.65564569  0.83178562  0.03895983     1.59700
Cd1753     Cd  0.71061113  0.88251788  0.98912876     1.59600
O1754       O  0.70115366  0.89156754  0.05251130    -0.80300
O1755       O  0.65654981  0.83412030  0.00161688    -1.90800
Cd1756     Cd  0.61053469  0.84343184  0.99021601     1.59900
O1757       O  0.73896928  0.92419302  0.01821720    -0.80200
O1758       O  0.57069847  0.79539718  0.96748997    -0.78900
C1759       C  0.73678864  0.82561725  0.96406081     0.83700
C1760       C  0.66581826  0.75408586  0.03818672     0.83300
O1761       O  0.59320283  0.74959433  0.96957408    -0.77800
C1762       C  0.56596884  0.82077217  0.04102888     0.84100
O1763       O  0.69882971  0.79452159  0.96622312    -0.77900
C1764       C  0.73066665  0.92422884  0.04132880     0.84300
C1765       C  0.66893612  0.92408127  0.96105363     0.84600
O1766       O  0.70009831  0.91825654  0.96370158    -0.80300
C1767       C  0.67637830  0.68741233  0.08594823     0.80900
N1768       N  0.70047515  0.67497278  0.07370181    -0.77400
C1769       C  0.71199776  0.68670230  0.04964507     0.83300
N1770       N  0.69949901  0.71131265  0.03793849    -0.77400
C1771       C  0.67676455  0.72524613  0.05048965     0.83400
N1772       N  0.66538614  0.71330442  0.07455644    -0.79100
C1773       C  0.67472923  0.49722824  0.91124849     0.80900
N1774       N  0.69979124  0.53568324  0.92223948    -0.77400
C1775       C  0.71302566  0.53786987  0.94624390     0.83300
N1776       N  0.70253142  0.50180752  0.95871949    -0.77400
C1777       C  0.67652216  0.96144846  0.94722923     0.83400
N1778       N  0.66449619  0.95880272  0.92302327    -0.79100
C1779       C  0.98911997  0.79212925  0.09084953     0.80900
N1780       N  0.95171435  0.77003402  0.07822232    -0.77400
C1781       C  0.95173220  0.76569760  0.05311445     0.83300
N1782       N  0.98955790  0.78337379  0.04069584    -0.77400
C1783       C  0.52567321  0.80689143  0.05414084     0.83400
N1784       N  0.52524776  0.81444173  0.07885092    -0.79100
C1785       C  0.48914444  0.68760131  0.91610650     0.80900
N1786       N  0.95385043  0.68037406  0.92751069    -0.77400
C1787       C  0.95342576  0.69340313  0.95097489     0.83300
N1788       N  0.48926866  0.71955600  0.96148718    -0.77400
C1789       C  0.52663610  0.72903090  0.95075659     0.83400
N1790       N  0.52666426  0.71335190  0.92800157    -0.79100
C1791       C  0.78636034  0.00409695  0.09109435     0.80900
N1792       N  0.76410436  0.96619362  0.07927610    -0.77400
C1793       C  0.75452656  0.96458313  0.05465326     0.83300
N1794       N  0.76755862  0.00100739  0.04186180    -0.77400
C1795       C  0.79572479  0.53792127  0.05050519     0.83400
N1796       N  0.80630283  0.53900026  0.07482926    -0.79100
O1797       O  0.76293036  0.66413050  0.48265517    -0.77800
C1798       C  0.77148430  0.57317646  0.53708245     0.83200
O1799       O  0.86671966  0.75306911  0.52687736    -0.79000
O1800       O  0.91814892  0.64952067  0.52811963    -0.80400
O1801       O  0.83417725  0.60195494  0.45011067    -0.80200
O1802       O  0.80021691  0.67349694  0.44773869    -0.78900
Zn1803     Zn  0.79297033  0.65446539  0.51086000     1.55700
O1804       O  0.85067619  0.57905683  0.48454897    -0.80300
Cd1805     Cd  0.84625102  0.66125218  0.46135981     1.59700
Cd1806     Cd  0.89111066  0.71973394  0.51008413     1.59600
O1807       O  0.90657503  0.70707671  0.44911799    -0.80300
O1808       O  0.84603432  0.66365406  0.49851064    -1.90800
Cd1809     Cd  0.85794688  0.62103360  0.51182895     1.59900
O1810       O  0.93286118  0.75099553  0.48175812    -0.80200
O1811       O  0.80983543  0.58159753  0.53572373    -0.78900
C1812       C  0.83040424  0.73811269  0.53720530     0.83700
C1813       C  0.76992975  0.67348369  0.45954797     0.83300
O1814       O  0.75923433  0.59670261  0.52728363    -0.77800
C1815       C  0.83846061  0.57425789  0.46191092     0.84100
O1816       O  0.80111279  0.69953426  0.53507035    -0.77900
C1817       C  0.93625410  0.74008217  0.45979818     0.84300
C1818       C  0.94072464  0.68666953  0.53700768     0.84600
O1819       O  0.93068155  0.71462856  0.53467852    -0.80300
C1820       C  0.82369512  0.80015185  0.58883349     0.80900
N1821       N  0.83376441  0.77547082  0.57537333    -0.77400
C1822       C  0.82116349  0.76608810  0.55131389     0.83300
N1823       N  0.79835057  0.78139137  0.54057969    -0.77400
C1824       C  0.78749005  0.80567779  0.55385126     0.83400
N1825       N  0.79971270  0.81467426  0.57819383    -0.79100
O1826       O  0.77420945  0.89726529  0.47297526    -0.77800
C1827       C  0.76167561  0.82041583  0.54133742     0.83200
O1828       O  0.66190140  0.74129197  0.47045307    -0.79000
O1829       O  0.62440659  0.78576223  0.55060516    -0.80400
O1830       O  0.67778242  0.91275504  0.51562576    -0.80200
O1831       O  0.72532936  0.91539300  0.46674080    -0.78900
Zn1832     Zn  0.73896469  0.83883020  0.48943818     1.55700
O1833       O  0.69585145  0.89056517  0.54979663    -0.80300
Cd1834     Cd  0.67474524  0.87367047  0.48763241     1.59700
Cd1835     Cd  0.63797031  0.77423550  0.48880880     1.59600
O1836       O  0.61886745  0.84957016  0.46693331    -0.80300
O1837       O  0.68492034  0.82959125  0.50096270    -1.90800
Cd1838     Cd  0.68475183  0.83169892  0.53836734     1.59900
O1839       O  0.59739731  0.78114378  0.46520942    -0.80200
O1840       O  0.73090766  0.81998609  0.55280938    -0.78900
C1841       C  0.69943284  0.75458772  0.46218814     0.83700
C1842       C  0.76303063  0.92259619  0.46464188     0.83300
O1843       O  0.76893030  0.82985650  0.51823345    -0.77800
C1844       C  0.69004004  0.91749642  0.53825964     0.84100
O1845       O  0.73030909  0.79203085  0.46618620    -0.77900
C1846       C  0.59266026  0.81198931  0.45977137     0.84300
C1847       C  0.59420901  0.75297378  0.54002016     0.84600
O1848       O  0.59708889  0.74215672  0.51786368    -0.80300
C1849       C  0.69673094  0.49787520  0.58373925     0.80900
N1850       N  0.72296471  0.53459652  0.57150166    -0.77400
C1851       C  0.74055698  0.53395546  0.54943175     0.83300
N1852       N  0.73113554  0.49654564  0.53930753    -0.77400
C1853       C  0.69950287  0.95659804  0.55061771     0.83400
N1854       N  0.68000500  0.95567805  0.57226262    -0.79100
C1855       C  0.51151011  0.70732474  0.58925733     0.80900
N1856       N  0.97771578  0.69796177  0.57601457    -0.77400
C1857       C  0.97930443  0.69835182  0.55090528     0.83300
N1858       N  0.51671486  0.71355665  0.53870885    -0.77400
C1859       C  0.55288802  0.72898143  0.55257654     0.83400
N1860       N  0.55022912  0.72595245  0.57787859    -0.79100
C1861       C  0.01685583  0.80529545  0.41272689     0.80900
N1862       N  0.55612128  0.82087820  0.42384107    -0.77400
C1863       C  0.55402877  0.80286094  0.44630649     0.83300
N1864       N  0.01361889  0.77631654  0.45954441    -0.77400
C1865       C  0.97696716  0.76564363  0.44723593     0.83400
N1866       N  0.97859173  0.77971330  0.42372666    -0.79100
C1867       C  0.69874406  0.68258722  0.41406205     0.80900
N1868       N  0.72586226  0.67180921  0.42432097    -0.77400
C1869       C  0.74338733  0.68710061  0.44706609     0.83300
N1870       N  0.73457853  0.71394297  0.45918041    -0.77400
C1871       C  0.70827867  0.72546904  0.44878272     0.83400
N1872       N  0.68997821  0.70936936  0.42633721    -0.79100
C1873       C  0.82471228  0.99792348  0.41491796     0.80900
N1874       N  0.83659389  0.53326144  0.42551178    -0.77400
C1875       C  0.82699565  0.53427792  0.44981373     0.83300
N1876       N  0.80492760  0.99927262  0.46341874    -0.77400
C1877       C  0.79355223  0.96196038  0.45232276     0.83400
N1878       N  0.80306364  0.96141902  0.42803983    -0.79100
C1879       C  0.99052155  0.98090378  0.22433279     0.46100
H1880       H  0.99405591  0.98209238  0.20375446    -0.02900
C1881       C  0.49480325  0.99988487  0.27225121     0.46200
H1882       H  0.49119830  0.00024035  0.29285924    -0.02900
C1883       C  0.53888291  0.52548127  0.23715429    -0.16600
C1884       C  0.94935262  0.97873330  0.23280457    -0.16400
C1885       C  0.98977494  0.94294984  0.23710093    -0.16700
C1886       C  0.53354712  0.52589359  0.26252891    -0.16700
C1887       C  0.94593718  0.97883665  0.25836401    -0.16300
C1888       C  0.98810922  0.94436831  0.26266321    -0.16600
C1889       C  0.87261468  0.97965884  0.35750729    -0.11200
C1890       C  0.85746209  0.49865927  0.33800017     0.11400
C1891       C  0.82432187  0.50561160  0.34465599    -0.03000
C1892       C  0.81414721  0.50390843  0.37008446    -0.05800
C1893       C  0.83635686  0.99651936  0.38889516    -0.16500
C1894       C  0.86159864  0.97902950  0.38256917     0.02400
C1895       C  0.87324164  0.50304924  0.31230088     0.12300
C1896       C  0.80081433  0.51555949  0.32504021     0.62900
H1897       H  0.78937715  0.50980243  0.37592771     0.12400
C1898       C  0.87763553  0.96057437  0.40214477     0.55100
H1899       H  0.89270796  0.96741559  0.35213384     0.08100
C1900       C  0.91352450  0.53766110  0.30568260    -0.05700
C1901       C  0.93554601  0.53264109  0.28612975    -0.06400
C1902       C  0.91609276  0.98666320  0.27283432    -0.16000
C1903       C  0.87354604  0.95503923  0.27856733    -0.01600
C1904       C  0.85335560  0.96175524  0.29886146    -0.09100
C1905       C  0.93639571  0.57885885  0.32010239     0.65200
H1906       H  0.96814328  0.55754516  0.28287765     0.10600
C1907       C  0.85051761  0.91338007  0.26480304     0.63600
H1908       H  0.82197708  0.93706160  0.30479796     0.08000
F1909       F  0.90650691  0.95095454  0.39224766    -0.19500
F1910       F  0.84378200  0.92371942  0.41171399    -0.15700
F1911       F  0.89778684  0.98921848  0.42130175    -0.19200
F1912       F  0.78059491  0.48223618  0.30851210    -0.22600
F1913       F  0.82935814  0.55157722  0.31203115    -0.24100
F1914       F  0.77029249  0.52222835  0.33558538    -0.18100
F1915       F  0.84573779  0.92020867  0.23998996    -0.20500
F1916       F  0.81030264  0.88642247  0.27450500    -0.21700
F1917       F  0.87347459  0.89353480  0.26669255    -0.18900
F1918       F  0.95040033  0.61226533  0.30357820    -0.19000
F1919       F  0.97131216  0.58197631  0.33224549    -0.22800
F1920       F  0.91072995  0.58248373  0.33755946    -0.24400
C1921       C  0.61378589  0.61894008  0.36588003    -0.11200
C1922       C  0.63887870  0.62491726  0.34480218     0.11400
C1923       C  0.68369282  0.65137124  0.34605572    -0.03000
C1924       C  0.70229066  0.67001479  0.36911395    -0.05800
C1925       C  0.67715219  0.66337742  0.39035930    -0.16500
C1926       C  0.63221448  0.63724754  0.38891738     0.02400
C1927       C  0.61670975  0.60134604  0.32203220     0.12300
C1928       C  0.71135366  0.66003633  0.32310367     0.62900
H1929       H  0.73659028  0.69013646  0.37073749     0.12400
C1930       C  0.60398752  0.62707718  0.41179185     0.55100
H1931       H  0.57948726  0.59877370  0.36419960     0.08100
C1932       C  0.60310245  0.55822841  0.31950500    -0.05700
C1933       C  0.57811139  0.53644632  0.29881771    -0.06400
C1934       C  0.56477737  0.55555136  0.28116904    -0.16000
C1935       C  0.57828933  0.59895923  0.28388827    -0.01600
C1936       C  0.60525187  0.62133152  0.30405057    -0.09100
C1937       C  0.61362809  0.53483936  0.33896705     0.65200
H1938       H  0.56750383  0.50339621  0.29668044     0.10600
C1939       C  0.56475407  0.62298517  0.26700025     0.63600
H1940       H  0.61586675  0.65440056  0.30659850     0.08000
F1941       F  0.61819924  0.61178311  0.43072043    -0.19500
F1942       F  0.56194993  0.59675890  0.40674776    -0.15700
F1943       F  0.60496995  0.66299300  0.41992775    -0.19200
F1944       F  0.70119902  0.68056560  0.30527121    -0.22600
F1945       F  0.70461081  0.62260300  0.31318475    -0.24100
F1946       F  0.75431412  0.68520205  0.32864138    -0.18100
F1947       F  0.52716347  0.59679289  0.25465621    -0.20500
F1948       F  0.59662206  0.64594598  0.24977353    -0.21700
F1949       F  0.55836822  0.65078696  0.28087614    -0.18900
F1950       F  0.59976467  0.49379287  0.33175660    -0.19000
F1951       F  0.59404334  0.53313366  0.36134201    -0.22800
F1952       F  0.65718408  0.55528745  0.34267903    -0.24400
C1953       C  0.02255093  0.87847744  0.36227536    -0.11200
C1954       C  0.00269590  0.84978133  0.34268339     0.11400
C1955       C  0.49349112  0.82237695  0.34518182    -0.03000
C1956       C  0.49847374  0.80559000  0.36758977    -0.05800
C1957       C  0.01764529  0.82273699  0.38817620    -0.16500
C1958       C  0.03037040  0.86562878  0.38522645     0.02400
C1959       C  0.99409589  0.86618157  0.31988549     0.12300
C1960       C  0.47092391  0.79377060  0.32303355     0.62900
H1961       H  0.48468073  0.77182936  0.36955600     0.12400
C1962       C  0.05045444  0.89714510  0.40644936     0.55100
H1963       H  0.03089408  0.91090703  0.35953441     0.08100
C1964       C  0.95918806  0.87231060  0.31830005    -0.05700
C1965       C  0.95827370  0.89677856  0.29859094    -0.06400
C1966       C  0.99125040  0.91565398  0.28085511    -0.16000
C1967       C  0.53586361  0.92563787  0.28324557    -0.01600
C1968       C  0.53451904  0.89962449  0.30273532    -0.09100
C1969       C  0.92406183  0.85457686  0.33787382     0.65200
H1970       H  0.93220486  0.90255266  0.29731974     0.10600
C1971       C  0.57502027  0.94377194  0.26673360     0.63600
H1972       H  0.55941690  0.89207390  0.30423812     0.08000
F1973       F  0.05917794  0.93696428  0.39957904    -0.19500
F1974       F  0.59995982  0.90446433  0.41269129    -0.15700
F1975       F  0.02308807  0.88389648  0.42669179    -0.19200
F1976       F  0.49901976  0.80524545  0.30325318    -0.22600
F1977       F  0.93812138  0.77227852  0.31471669    -0.24100
F1978       F  0.45588070  0.75182695  0.32864596    -0.18100
F1979       F  0.61124508  0.95925500  0.28140837    -0.20500
F1980       F  0.57949674  0.46781484  0.25645004    -0.21700
F1981       F  0.57224797  0.91228992  0.25152911    -0.18900
F1982       F  0.89129831  0.86121890  0.33149271    -0.19000
F1983       F  0.94042422  0.87375928  0.36064083    -0.22800
F1984       F  0.90690021  0.81159399  0.34041529    -0.24400
C1985       C  0.87714080  0.96114066  0.17684009    -0.11200
C1986       C  0.87752483  0.50159047  0.17764319     0.11400
C1987       C  0.89577697  0.53125003  0.19718251    -0.03000
C1988       C  0.91913492  0.52483041  0.21570686    -0.05800
C1989       C  0.92059096  0.98239216  0.21450303    -0.16500
C1990       C  0.90094513  0.95354725  0.19435963     0.02400
C1991       C  0.85766055  0.50826147  0.15560236     0.12300
C1992       C  0.89177241  0.57003257  0.19772515     0.62900
H1993       H  0.93453496  0.54782107  0.23046465     0.12400
C1994       C  0.90367260  0.91421853  0.19114947     0.55100
H1995       H  0.86329245  0.94054246  0.16082852     0.08100
C1996       C  0.88119129  0.52632400  0.13338799    -0.05700
C1997       C  0.85898781  0.52471604  0.11176520    -0.06400
C1998       C  0.80659597  0.00640751  0.11531706    -0.16000
C1999       C  0.78344250  0.98571104  0.13717877    -0.01600
C2000       C  0.80615347  0.98506442  0.15830870    -0.09100
C2001       C  0.92925215  0.54654919  0.13095841     0.65200
H2002       H  0.87657137  0.53773416  0.09452457     0.10600
C2003       C  0.73526713  0.96458245  0.13811561     0.63600
H2004       H  0.78926168  0.96850625  0.17509353     0.08000
F2005       F  0.94222817  0.92449151  0.18059362    -0.19500
F2006       F  0.87162121  0.88504908  0.17570076    -0.15700
F2007       F  0.89905227  0.89486937  0.21389671    -0.19200
F2008       F  0.84918583  0.55777236  0.19891029    -0.22600
F2009       F  0.90944270  0.59375280  0.17632022    -0.24100
F2010       F  0.91245494  0.59538247  0.21814782    -0.18100
F2011       F  0.71671620  0.93048236  0.12205617    -0.20500
F2012       F  0.72344562  0.99314145  0.13108942    -0.21700
F2013       F  0.71956915  0.95012387  0.16188882    -0.18900
F2014       F  0.94660199  0.58767148  0.12266367    -0.19000
F2015       F  0.93795476  0.52439335  0.11358607    -0.22800
F2016       F  0.94934995  0.54752878  0.15301460    -0.24400
C2017       C  0.98077971  0.84444997  0.20677809    -0.11200
C2018       C  0.01062522  0.86413038  0.18766866     0.11400
C2019       C  0.54367495  0.92409889  0.18599363    -0.03000
C2020       C  0.54006853  0.94878720  0.20436161    -0.05800
C2021       C  0.99657123  0.91287689  0.22222003    -0.16500
C2022       C  0.97184482  0.86783695  0.22368195     0.02400
C2023       C  0.00213065  0.84041770  0.16432611     0.12300
C2024       C  0.57772507  0.94718360  0.16619812     0.62900
H2025       H  0.56190317  0.98268901  0.20379728     0.12400
C2026       C  0.93372721  0.84199401  0.24056824     0.55100
H2027       H  0.96060669  0.81031274  0.20650244     0.08100
C2028       C  0.01978262  0.81539417  0.15863417    -0.05700
C2029       C  0.01289928  0.79780505  0.13458579    -0.06400
C2030       C  0.98949218  0.80532268  0.11661802    -0.16000
C2031       C  0.46789563  0.83782140  0.12311386    -0.01600
C2032       C  0.47666112  0.85724441  0.14656379    -0.09100
C2033       C  0.04676411  0.80891858  0.17757620     0.65200
H2034       H  0.02676046  0.77917341  0.12936123     0.10600
C2035       C  0.43857878  0.84312565  0.10525363     0.63600
H2036       H  0.46250879  0.87558901  0.15188570     0.08000
F2037       F  0.94465860  0.82291582  0.25896366    -0.19500
F2038       F  0.90011048  0.81082987  0.22685780    -0.15700
F2039       F  0.91912902  0.86551041  0.25156961    -0.19200
F2040       F  0.56987526  0.97527129  0.15367875    -0.22600
F2041       F  0.57959215  0.92066679  0.14881967    -0.24100
F2042       F  0.61715770  0.96958509  0.17771136    -0.18100
F2043       F  0.42549787  0.86930254  0.11494145    -0.20500
F2044       F  0.40245034  0.80429695  0.10067736    -0.21700
F2045       F  0.45951214  0.86069091  0.08300385    -0.18900
F2046       F  0.06317058  0.78562428  0.16778447    -0.19000
F2047       F  0.02218162  0.78770808  0.19816677    -0.22800
F2048       F  0.08057961  0.84756161  0.18514057    -0.24400
C2049       C  0.61329737  0.61392986  0.13869663    -0.11200
C2050       C  0.62797837  0.64173336  0.15902366     0.11400
C2051       C  0.65973451  0.68460683  0.15557794    -0.03000
C2052       C  0.67487003  0.69866259  0.13121709    -0.05800
C2053       C  0.65986714  0.67074876  0.11090505    -0.16500
C2054       C  0.62843328  0.62775848  0.11449023     0.02400
C2055       C  0.61006383  0.62303785  0.18360123     0.12300
C2056       C  0.67780533  0.71491651  0.17744870     0.62900
H2057       H  0.69890303  0.73141031  0.12783212     0.12400
C2058       C  0.61008940  0.59689211  0.09281861     0.55100
H2059       H  0.58950810  0.58106763  0.14206064     0.08100
C2060       C  0.56765261  0.61041462  0.18960129    -0.05700
C2061       C  0.54700349  0.57974140  0.20806769    -0.06400
C2062       C  0.56762803  0.56275443  0.22153004    -0.16000
C2063       C  0.61155064  0.57823765  0.21698510    -0.01600
C2064       C  0.63185173  0.60818858  0.19779079    -0.09100
C2065       C  0.54352216  0.62770144  0.17586241     0.65200
H2066       H  0.51358861  0.56753883  0.21158373     0.10600
C2067       C  0.63642334  0.56093313  0.22975431     0.63600
H2068       H  0.66396642  0.61755389  0.19217367     0.08000
F2069       F  0.57739235  0.55749708  0.10039007    -0.19500
F2070       F  0.64154674  0.59184526  0.08220643    -0.15700
F2071       F  0.59388357  0.61200019  0.07496617    -0.19200
F2072       F  0.69686817  0.70118135  0.19420339    -0.22600
F2073       F  0.64566737  0.71703778  0.18949659    -0.24100
F2074       F  0.70812523  0.75528499  0.16980825    -0.18100
F2075       F  0.62299144  0.52105880  0.22096305    -0.20500
F2076       F  0.67973106  0.58585197  0.22508719    -0.21700
F2077       F  0.63125203  0.55950154  0.25522794    -0.18900
F2078       F  0.50383549  0.61340028  0.18637106    -0.19000
F2079       F  0.53787933  0.61550611  0.15110694    -0.22800
F2080       F  0.56593780  0.67120936  0.17704843    -0.24400
C2081       C  0.87735417  0.90080098  0.86663246    -0.11200
C2082       C  0.86574389  0.87200718  0.84690409     0.11400
C2083       C  0.83814823  0.82834321  0.85121307    -0.03000
C2084       C  0.82091587  0.81513394  0.87520784    -0.05800
C2085       C  0.83211583  0.84404971  0.89484718    -0.16500
C2086       C  0.86130450  0.88742960  0.89081903     0.02400
C2087       C  0.88700572  0.88862158  0.82269861     0.12300
C2088       C  0.82909098  0.79583172  0.83109523     0.62900
H2089       H  0.79946066  0.78188456  0.87906342     0.12400
C2090       C  0.87706530  0.91884600  0.91219952     0.55100
H2091       H  0.90021867  0.93375450  0.86304567     0.08100
C2092       C  0.87251296  0.90706478  0.80511689    -0.05700
C2093       C  0.89847704  0.92803867  0.78435817    -0.06400
C2094       C  0.93790560  0.93090008  0.78099646    -0.16000
C2095       C  0.95013324  0.90905648  0.79754347    -0.01600
C2096       C  0.92503260  0.88936735  0.81857944    -0.09100
C2097       C  0.83110790  0.90650945  0.80898632     0.65200
H2098       H  0.88978918  0.94525962  0.77177555     0.10600
C2099       C  0.98982810  0.90671233  0.79425832     0.63600
H2100       H  0.93561747  0.87502357  0.83227104     0.08000
F2101       F  0.84367506  0.92170579  0.92185373    -0.19500
F2102       F  0.90851102  0.95877904  0.90457009    -0.15700
F2103       F  0.89395770  0.90572396  0.93082063    -0.19200
F2104       F  0.86603022  0.79580851  0.82586208    -0.22600
F2105       F  0.81486348  0.80515533  0.80949001    -0.24100
F2106       F  0.79831156  0.75552913  0.83857960    -0.18100
F2107       F  0.02095187  0.93446207  0.81060484    -0.20500
F2108       F  0.00488077  0.91601143  0.77011646    -0.21700
F2109       F  0.98084933  0.86623379  0.79943473    -0.18900
F2110       F  0.82188563  0.92415305  0.78890261    -0.19000
F2111       F  0.83395357  0.92907998  0.83016683    -0.22800
F2112       F  0.79757512  0.86551090  0.81182980    -0.24400
C2113       C  0.52051597  0.64310914  0.80160905    -0.11200
C2114       C  0.49183171  0.62004000  0.82063491     0.11400
C2115       C  0.96773979  0.58700666  0.81704949    -0.03000
C2116       C  0.97461897  0.56681159  0.79728805    -0.05800
C2117       C  0.49973072  0.57822072  0.77913035    -0.16500
C2118       C  0.52601268  0.62321452  0.78091429     0.02400
C2119       C  0.49451269  0.64158942  0.84411094     0.12300
C2120       C  0.93315325  0.56137087  0.83619356     0.62900
H2121       H  0.95532725  0.53278600  0.79605343     0.12400
C2122       C  0.56152217  0.65284718  0.76338086     0.55100
H2123       H  0.54091736  0.67700741  0.80385497     0.08100
C2124       C  0.52366411  0.64627797  0.86301789    -0.05700
C2125       C  0.52072549  0.66172964  0.88622083    -0.06400
C2126       C  0.48975554  0.67234236  0.89090615    -0.16000
C2127       C  0.96247472  0.67644998  0.87128485    -0.01600
C2128       C  0.96594989  0.66289379  0.84744824    -0.09100
C2129       C  0.55683303  0.63387070  0.85895794     0.65200
H2130       H  0.54200222  0.66457530  0.90119659     0.10600
C2131       C  0.92692634  0.68527930  0.87624079     0.63600
H2132       H  0.94311348  0.65792977  0.83295658     0.08000
F2133       F  0.59888303  0.67636390  0.77685076    -0.19500
F2134       F  0.55094826  0.68018464  0.75246905    -0.15700
F2135       F  0.56971586  0.63279211  0.74480409    -0.19200
F2136       F  0.90373173  0.57417724  0.83620808    -0.22600
F2137       F  0.95079417  0.56711456  0.85977635    -0.24100
F2138       F  0.91157545  0.51860468  0.83094310    -0.18100
F2139       F  0.90675206  0.68559427  0.85439444    -0.20500
F2140       F  0.94328455  0.72432172  0.88744184    -0.21700
F2141       F  0.89650574  0.65422825  0.89158723    -0.18900
F2142       F  0.58207109  0.64140457  0.87988818    -0.19000
F2143       F  0.58332488  0.65689797  0.83938122    -0.22800
F2144       F  0.53677700  0.59132400  0.85356954    -0.24400
C2145       C  0.62418344  0.03543732  0.81082169    -0.11200
C2146       C  0.62816663  0.50376866  0.81074558     0.11400
C2147       C  0.61477861  0.47828943  0.78911790    -0.03000
C2148       C  0.59211113  0.48604721  0.77058991    -0.05800
C2149       C  0.58189224  0.51758650  0.77385309    -0.16500
C2150       C  0.59813930  0.04147157  0.79437693     0.02400
C2151       C  0.64367675  0.49394361  0.83366548     0.12300
C2152       C  0.62361130  0.44281439  0.78617812     0.62900
H2153       H  0.57959897  0.46555251  0.75450067     0.12400
C2154       C  0.59503172  0.08024138  0.79815654     0.55100
H2155       H  0.63806784  0.05608116  0.82682743     0.08100
C2156       C  0.68615763  0.52006464  0.84208194    -0.05700
C2157       C  0.69501423  0.51952159  0.86753069    -0.06400
C2158       C  0.66284554  0.49416533  0.88466128    -0.16000
C2159       C  0.62166703  0.96449211  0.87428629    -0.01600
C2160       C  0.61332942  0.96400855  0.84861126    -0.09100
C2161       C  0.72289676  0.54998994  0.82530891     0.65200
H2162       H  0.72739666  0.53982408  0.87418340     0.10600
C2163       C  0.58471548  0.93954807  0.89215995     0.63600
H2164       H  0.58090180  0.94534674  0.84175334     0.08000
F2165       F  0.59707043  0.09825994  0.77542772    -0.19500
F2166       F  0.13507086  0.10940840  0.81235890    -0.15700
F2167       F  0.06417584  0.06701960  0.81554829    -0.19200
F2168       F  0.60290195  0.41300675  0.80473299    -0.22600
F2169       F  0.66700247  0.45882760  0.78803515    -0.24100
F2170       F  0.60984664  0.42304587  0.76325250    -0.20500
F2171       F  0.58546970  0.96589775  0.91071611    -0.20500
F2172       F  0.58764888  0.90708622  0.90283884    -0.21700
F2173       F  0.54566298  0.92199166  0.88015654    -0.18900
F2174       F  0.75429858  0.53981323  0.82639475    -0.19000
F2175       F  0.73969378  0.59091898  0.83370635    -0.22800
F2176       F  0.71115842  0.54827685  0.80057905    -0.24400
C2177       C  0.88375427  0.90238728  0.68762349    -0.11200
C2178       C  0.88718475  0.86660703  0.68625593     0.11400
C2179       C  0.91053892  0.85954023  0.70470796    -0.03000
C2180       C  0.93286070  0.89092718  0.72291635    -0.05800
C2181       C  0.93227596  0.92864435  0.72306859    -0.16500
C2182       C  0.90515157  0.93319426  0.70594423     0.02400
C2183       C  0.86880516  0.84000865  0.66373135     0.12300
C2184       C  0.91198637  0.81930584  0.70500539     0.62900
H2185       H  0.95295580  0.88722847  0.73617764     0.12400
C2186       C  0.89788060  0.96980555  0.70671252     0.55100
H2187       H  0.86524490  0.90682184  0.67342302     0.08100
C2188       C  0.82457154  0.81876690  0.65830227    -0.05700
C2189       C  0.81103486  0.80600149  0.63361178    -0.06400
C2190       C  0.84000036  0.81214983  0.61460855    -0.16000
C2191       C  0.88398808  0.83089699  0.62038781    -0.01600
C2192       C  0.89756042  0.84521342  0.64484258    -0.09100
C2193       C  0.79061499  0.80977235  0.67761541     0.65200
H2194       H  0.77740151  0.79106343  0.62911542     0.10600
C2195       C  0.91695674  0.83789062  0.60070791     0.63600
H2196       H  0.93123760  0.86276722  0.64911274     0.08000
F2197       F  0.86195240  0.96156410  0.69333157    -0.19500
F2198       F  0.93231658  0.00517823  0.69653860    -0.15700
F2199       F  0.88427119  0.48284281  0.73193083    -0.19200
F2200       F  0.93402056  0.81800618  0.68445359    -0.22600
F2201       F  0.87090677  0.78473012  0.70447228    -0.24100
F2202       F  0.93194213  0.81640456  0.72627245    -0.18100
F2203       F  0.91337267  0.85898977  0.58034547    -0.20500
F2204       F  0.91084004  0.79944931  0.59310704    -0.21700
F2205       F  0.95821673  0.86169239  0.60976017    -0.18900
F2206       F  0.75994461  0.76722282  0.67718365    -0.19000
F2207       F  0.77152484  0.83268704  0.67179834    -0.22800
F2208       F  0.80655060  0.81973837  0.70167314    -0.24400
C2209       C  0.47894090  0.63047871  0.70573162    -0.11200
C2210       C  0.50691098  0.64254500  0.68544210     0.11400
C2211       C  0.53370853  0.62580638  0.68272645    -0.03000
C2212       C  0.52968990  0.59549433  0.69984190    -0.05800
C2213       C  0.49990049  0.58107196  0.71941506    -0.16500
C2214       C  0.47294578  0.59803330  0.72204061     0.02400
C2215       C  0.00378980  0.67193042  0.66481432     0.12300
C2216       C  0.56562517  0.63885756  0.66142312     0.62900
H2217       H  0.55000384  0.58246110  0.69789017     0.12400
C2218       C  0.43476584  0.58094086  0.73930878     0.55100
H2219       H  0.45842325  0.64348800  0.70725790     0.08100
C2220       C  0.97243540  0.64647870  0.64699050    -0.05700
C2221       C  0.97546157  0.66310759  0.62322606    -0.06400
C2222       C  0.50689765  0.69710686  0.61616978    -0.16000
C2223       C  0.53676338  0.72293855  0.63470114    -0.01600
C2224       C  0.53288893  0.70591970  0.65876401    -0.09100
C2225       C  0.93795449  0.60080215  0.65229689     0.65200
H2226       H  0.95315872  0.64315567  0.60897150     0.10600
C2227       C  0.57276725  0.76762867  0.62927750     0.63600
H2228       H  0.55691076  0.72357743  0.67283113     0.08000
F2229       F  0.93098813  0.55302362  0.75207431    -0.19500
F2230       F  0.39901865  0.57217974  0.72559053    -0.15700
F2231       F  0.44198223  0.61096376  0.75709519    -0.19200
F2232       F  0.59545760  0.68149264  0.66307833    -0.22600
F2233       F  0.05095935  0.64104723  0.63959066    -0.24100
F2234       F  0.09440314  0.63020677  0.66365741    -0.18100
F2235       F  0.59150108  0.78955034  0.65108669    -0.20500
F2236       F  0.55722297  0.78937511  0.61638543    -0.21700
F2237       F  0.60396635  0.76681535  0.61524031    -0.18900
F2238       F  0.91157434  0.58188479  0.63188905    -0.19000
F2239       F  0.91273735  0.59933043  0.67188989    -0.22800
F2240       F  0.95629258  0.57728101  0.65832384    -0.24400
C2241       C  0.65647499  0.48096743  0.65041624    -0.11200
C2242       C  0.63436834  0.50253529  0.64986816     0.11400
C2243       C  0.62686282  0.01905150  0.62830330    -0.03000
C2244       C  0.64679275  0.01630056  0.60668957    -0.05800
C2245       C  0.67608672  0.49881001  0.60699017    -0.16500
C2246       C  0.67785735  0.47895568  0.62924046     0.02400
C2247       C  0.60521435  0.99694033  0.67303233     0.12300
C2248       C  0.60789538  0.04716879  0.62851044     0.62900
H2249       H  0.64810623  0.03377291  0.59009430     0.12400
C2250       C  0.70365304  0.45747599  0.63098736     0.55100
H2251       H  0.65685439  0.46579744  0.66767900     0.08100
C2252       C  0.56395791  0.96407858  0.67961243    -0.05700
C2253       C  0.54565622  0.96838085  0.70146608    -0.06400
C2254       C  0.57133107  0.51061414  0.71502880    -0.16000
C2255       C  0.61339713  0.54360417  0.70898591    -0.01600
C2256       C  0.63353780  0.53848358  0.68818467    -0.09100
C2257       C  0.53872633  0.92557310  0.66310345     0.65200
H2258       H  0.51381607  0.94381605  0.70664388     0.10600
C2259       C  0.63689868  0.58481872  0.72321221     0.63600
H2260       H  0.66561158  0.56287678  0.68309813     0.08000
F2261       F  0.68540724  0.42172080  0.61625011    -0.19500
F2262       F  0.70550728  0.44537299  0.65523702    -0.15700
F2263       F  0.74496575  0.48497569  0.62306864    -0.19200
F2264       F  0.63479826  0.58422287  0.64393446    -0.22600
F2265       F  0.56561981  0.02429099  0.63577199    -0.24100
F2266       F  0.60971495  0.06435921  0.60520083    -0.18100
F2267       F  0.64890562  0.57820075  0.74637644    -0.20500
F2268       F  0.61126114  0.60159935  0.72574879    -0.21700
F2269       F  0.67356761  0.61459340  0.71097788    -0.18900
F2270       F  0.49826971  0.89869693  0.67242284    -0.19000
F2271       F  0.55941911  0.90326252  0.66151283    -0.22800
F2272       F  0.53451093  0.93797942  0.63940929    -0.24400
loop_ 
_geom_bond_atom_site_label_1 
_geom_bond_atom_site_label_2 
_geom_bond_distance 
_geom_bond_site_symmetry_2 
_ccdc_geom_bond_type 
C1            H2   1.109       .  S
C1            C7   1.535       .  S
C1            C6   1.548       .  S
C1         C1709   1.547   1_445  S
C3            H4   1.112       .  S
C3          C577   1.542       .  S
C3         C1144   1.535   1_455  S
C3          C578   1.549       .  S
C5         C1705   1.546       .  S
C5            C8   1.370       .  D
C5          C390   1.489       .  S
C6            C9   1.377   1_455  D
C6          C413   1.493   1_455  S
C7           C10   1.374       .  D
C7          C445   1.496       .  S
C8         C1139   1.535       .  S
C8          C477   1.498       .  S
C9          C571   1.543   1_655  S
C9          C509   1.484       .  S
C10         C571   1.548       .  S
C10         C550   1.486       .  S
O11          C27   1.282       .  A
O11         Zn17   2.083       .  S
C12          O28   1.277       .  A
C12          O25   1.278       .  A
C12          C65   1.469       .  S
O13          C26   1.277       .  A
O13         Cd20   2.077       .  S
O14          C32   1.277       .  A
O14         Cd23   2.087       .  S
O15          C29   1.273       .  A
O15         Cd19   2.057   1_554  S
O16          C27   1.270       .  A
O16         Cd19   2.037       .  S
Zn17         O28   2.030   1_556  S
Zn17         O30   2.017       .  S
Zn17         O22   1.932       .  S
O18          C29   1.276       .  A
O18         Cd23   2.080       .  S
Cd19         O21   2.057       .  S
Cd19         O22   1.971       .  S
Cd20         O24   2.042       .  S
Cd20         O33   2.069   1_556  S
Cd20         O22   1.982       .  S
O21          C31   1.273       .  A
O22         Cd23   1.993   1_556  S
Cd23         O25   2.079       .  S
O24          C31   1.271       .  A
C26          O30   1.275       .  A
C26          C36   1.462       .  S
C27          C71   1.467       .  S
C29          C91   1.464       .  S
C31          C83   1.447       .  S
C32          O33   1.274       .  A
C32          C77   1.472       .  S
C34         C381   1.471       .  S
C34          N35   1.361       .  A
C34          N39   1.360       .  A
N35          C36   1.356       .  A
C36          N37   1.355       .  A
N37          C38   1.356       .  A
C38          C55   1.461       .  S
C38          N39   1.355       .  A
O40          C56   1.271       .  A
O40         Zn46   2.002   1_554  S
C41          O57   1.275       .  A
C41          O54   1.270       .  A
C41          C85   1.450       .  S
O42          C55   1.276       .  A
O42         Cd49   2.082       .  S
O43          C61   1.276       .  A
O43         Cd52   2.085       .  S
O44          C58   1.279       .  A
O44         Cd48   2.097       .  S
O45          C56   1.278       .  A
O45         Cd48   2.099       .  S
Zn46         O57   2.021       .  S
Zn46         O59   1.998       .  S
Zn46         O51   1.926       .  S
O47          C58   1.272       .  A
O47         Cd52   2.055   1_554  S
Cd48         O50   2.096       .  S
Cd48         O51   2.004   1_554  S
Cd49         O53   2.054   1_556  S
Cd49         O62   2.058       .  S
Cd49         O51   1.980       .  S
O50          C60   1.279       .  A
O51         Cd52   1.989       .  S
Cd52         O54   2.035       .  S
O53          C60   1.274       .  A
C55          O59   1.272       .  A
C56          C67   1.471       .  S
C58          C79   1.468       .  S
C60          C89   1.466       .  S
C61          O62   1.272       .  A
C61          C73   1.461       .  S
C63         C349   1.465       .  S
C63          N64   1.358       .  A
C63          N68   1.360       .  A
N64          C65   1.354       .  A
C65          N66   1.359       .  A
N66          C67   1.361       .  A
C67          N68   1.357       .  A
C69         C454   1.480       .  S
C69          N70   1.368   1_565  A
C69         N642   1.355       .  A
N70          C71   1.363       .  A
C71          N72   1.358       .  A
N72         C641   1.353   1_545  A
C73          N74   1.355       .  A
C73         N640   1.353       .  A
N74         C637   1.361       .  A
C75         C326   1.466       .  S
C75          N76   1.358       .  A
C75        N1216   1.358       .  A
N76          C77   1.355       .  A
C77          N78   1.360       .  A
N78        C1215   1.361       .  A
C79          N80   1.353       .  A
C79        N1214   1.361   1_455  A
N80        C1211   1.358   1_455  A
C81         C422   1.465       .  S
C81          N86   1.358   1_655  A
C81        N1218   1.354       .  A
N82          C83   1.349       .  A
N82        C1217   1.354       .  A
C83        N1220   1.352       .  A
N84          C85   1.355   1_655  A
N84        C1219   1.354       .  A
C85          N86   1.350       .  A
C87         C294   1.473       .  S
C87          N88   1.362       .  A
C87         N660   1.361       .  A
N88          C89   1.357       .  A
C89          N90   1.358       .  A
N90         C659   1.355       .  A
C91          N92   1.353       .  A
C91         N658   1.356       .  A
N92         C655   1.359       .  A
O93         C109   1.276       .  A
O93         Zn99   2.018       .  S
C94         O110   1.279       .  A
C94         O107   1.274       .  A
C94         C147   1.464       .  S
O95         C108   1.274       .  A
O95        Cd102   2.064       .  S
O96         C114   1.276       .  A
O96        Cd105   2.090       .  S
O97         C111   1.278       .  A
O97        Cd101   2.094       .  S
O98         C109   1.279       .  A
O98        Cd101   2.099       .  S
Zn99        O110   2.051       .  S
Zn99        O112   2.019       .  S
Zn99        O104   1.919       .  S
O100        C111   1.272       .  A
O100       Cd105   2.048       .  S
Cd101       O103   2.092       .  S
Cd101       O104   1.997       .  S
Cd102       O106   2.041       .  S
Cd102       O115   2.031       .  S
Cd102       O104   1.972       .  S
O103        C113   1.279       .  A
O104       Cd105   1.972       .  S
Cd105       O107   2.056       .  S
O106        C113   1.271       .  A
C108        O112   1.274       .  A
C108        C118   1.458       .  S
C109        C165   1.471       .  S
C111        C171   1.466       .  S
C113        C161   1.462       .  S
C114        O115   1.268       .  A
C114        C153   1.453       .  S
C116        C486   1.478       .  S
C116        N117   1.358       .  A
C116        N121   1.366       .  A
N117        C118   1.353       .  A
C118        N119   1.354       .  A
N119        C120   1.358       .  A
C120        C123   1.473       .  S
C120        N121   1.361       .  A
O122        C138   1.280       .  A
O122       Zn128   2.064       .  S
C123        O139   1.275       .  A
C123        O136   1.278       .  A
O124        C137   1.276       .  A
O124       Cd131   2.083       .  S
O125        C143   1.278       .  A
O125       Cd134   2.086       .  S
O126        C140   1.271       .  A
O126       Cd130   2.046       .  S
O127        C138   1.270       .  A
O127       Cd130   2.035       .  S
Zn128       O139   2.015       .  S
Zn128       O141   2.024       .  S
Zn128       O133   1.931       .  S
O129        C140   1.278       .  A
O129       Cd134   2.098       .  S
Cd130       O132   2.082       .  S
Cd130       O133   1.981       .  S
Cd131       O135   2.058       .  S
Cd131       O144   2.051       .  S
Cd131       O133   1.986       .  S
O132        C142   1.275       .  A
O133       Cd134   2.011       .  S
Cd134       O136   2.099       .  S
O135        C142   1.272       .  A
C137        O141   1.275       .  A
C137        C167   1.467       .  S
C138        C173   1.462       .  S
C140        C149   1.464       .  S
C142        C159   1.462       .  S
C143        O144   1.274       .  A
C143        C155   1.463       .  S
C145        C541   1.476       .  S
C145        N146   1.363   1_565  A
C145        N718   1.359       .  A
N146        C147   1.355       .  A
C147        N148   1.356   1_545  A
N148        C717   1.356       .  A
C149        N150   1.355       .  A
C149        N716   1.357       .  A
N150        C713   1.360       .  A
C151        C518   1.464       .  S
C151        N156   1.360       .  A
C151       N1288   1.354   1_455  A
N152        C153   1.346       .  A
N152       C1287   1.354       .  A
C153       N1290   1.358       .  A
N154        C155   1.360       .  A
N154       C1289   1.355   1_455  A
C155        N156   1.357       .  A
C157        C253   1.459       .  S
C157        N162   1.356       .  A
C157       N1294   1.357       .  A
N158        C159   1.356       .  A
N158       C1293   1.360       .  A
C159       N1296   1.358       .  A
N160        C161   1.361       .  A
N160       C1295   1.359       .  A
C161        N162   1.351       .  A
C163        C221   1.479       .  S
C163        N164   1.364       .  A
C163        N168   1.360       .  A
N164        C165   1.359       .  A
C165        N166   1.358       .  A
N166        C167   1.356       .  A
C167        N168   1.355       .  A
C169        C189   1.464       .  S
C169        N174   1.358       .  A
C169        N738   1.360       .  A
N170        C171   1.356       .  A
N170        C737   1.360   1_545  A
C171        N740   1.358   1_545  A
N172        C173   1.358       .  A
N172        C739   1.360       .  A
C173        N174   1.353       .  A
C175        H176   1.107       .  S
C175        C181   1.546       .  S
C175        C180   1.540       .  S
C175       C1883   1.549       .  S
C177        H178   1.112       .  S
C177       C1319   1.540       .  S
C177        C750   1.529   1_655  S
C177       C1320   1.542       .  S
C179       C1879   1.550   1_445  S
C179        C182   1.378       .  D
C179        C358   1.491       .  S
C180        C183   1.376       .  D
C180        C285   1.493       .  S
C181        C184   1.373       .  D
C181        C317   1.495       .  S
C182        C745   1.535   1_445  S
C182        C230   1.494       .  S
C183       C1313   1.540       .  S
C183        C198   1.491       .  S
C184       C1313   1.533       .  S
C184        C262   1.485       .  S
C185        C190   1.399       .  A
C185        C754   1.401       .  A
C185        H195   1.084       .  S
C186        C191   1.470       .  S
C186        C187   1.411       .  A
C186        C753   1.399   1_545  A
C187        C188   1.406       .  A
C187        C192   1.516       .  S
C188        C757   1.404   1_545  A
C188        H193   1.083       .  S
C189        C190   1.414       .  A
C189        C756   1.404       .  A
C190        C194   1.520       .  S
C191        C196   1.413       .  A
C191        C768   1.400   1_545  A
C192        F208   1.383   1_545  S
C192        F209   1.383       .  S
C192        F210   1.385       .  S
C194        F205   1.385       .  S
C194        F206   1.382       .  S
C194        F207   1.384       .  S
C196        C197   1.395       .  A
C196        C201   1.520       .  S
C197        C766   1.402   1_545  A
C197        H202   1.080       .  S
C198        C199   1.421       .  A
C198        C765   1.403       .  A
C199        C200   1.408       .  A
C199        C203   1.514       .  S
C200        C759   1.400       .  A
C200        H204   1.083       .  S
C201        F214   1.383       .  S
C201        F215   1.383       .  S
C201        F216   1.381       .  S
C203        F211   1.378       .  S
C203        F212   1.385       .  S
C203        F213   1.373       .  S
C217        C218   1.401       .  A
C217        C222   1.406       .  A
C217        H227   1.083       .  S
C218        C223   1.481       .  S
C218        C219   1.413       .  A
C219        C220   1.408       .  A
C219        C224   1.519       .  S
C220        C221   1.405       .  A
C220        H225   1.083       .  S
C221        C222   1.420       .  A
C222        C226   1.520       .  S
C223        C228   1.411       .  A
C223        C232   1.402       .  A
C224        F240   1.383       .  S
C224        F241   1.382       .  S
C224        F242   1.384       .  S
C226        F237   1.383       .  S
C226        F238   1.385       .  S
C226        F239   1.382       .  S
C228        C229   1.399       .  A
C228        C233   1.522       .  S
C229        C230   1.409       .  A
C229        H234   1.081   1_545  S
C230        C231   1.423       .  A
C231        C232   1.410       .  A
C231        C235   1.516       .  S
C232        H236   1.084       .  S
C233        F246   1.385   1_545  S
C233        F247   1.382       .  S
C233        F248   1.381       .  S
C235        F243   1.375       .  S
C235        F244   1.382       .  S
C235        F245   1.385       .  S
C249        C250   1.399       .  A
C249        C254   1.397       .  A
C249        H259   1.084       .  S
C250        C255   1.466       .  S
C250       C1387   1.411       .  A
C251        C252   1.401       .  A
C251       C1386   1.410       .  A
C251        C256   1.520       .  S
C252       C1389   1.403   1_655  A
C252        H257   1.083       .  S
C253        C254   1.414       .  A
C253       C1388   1.403       .  A
C254        C258   1.521       .  S
C255        C260   1.412       .  A
C255       C1400   1.397       .  A
C256        F272   1.382       .  S
C256        F274   1.384       .  S
C256       F1409   1.382       .  S
C258        F269   1.384       .  S
C258        F271   1.384       .  S
C258       F1406   1.382       .  S
C260        C261   1.398       .  A
C260        C265   1.522       .  S
C261        C262   1.406       .  A
C261        H266   1.083       .  S
C262       C1399   1.422       .  A
C263        C264   1.401       .  A
C263       C1398   1.425   1_455  A
C263        C267   1.514       .  S
C264       C1391   1.396   1_455  A
C264        H268   1.085       .  S
C265        F278   1.385       .  S
C265        F279   1.382       .  S
C265        F280   1.381       .  S
C267        F275   1.385       .  S
C267        F277   1.383       .  S
C267        F844   1.368       .  S
F270       C1394   1.383       .  S
F273       C1392   1.381       .  S
F276        C835   1.366       .  S
C281        C286   1.400       .  A
C281        C850   1.396       .  A
C281        H291   1.085       .  S
C282        C287   1.477       .  S
C282        C283   1.410       .  A
C282        C849   1.395   1_545  A
C283        C284   1.408       .  A
C283        C288   1.518       .  S
C284        C853   1.411       .  A
C284        H289   1.079       .  S
C285        C286   1.424       .  A
C285        C852   1.408       .  A
C286        C290   1.518       .  S
C287        C292   1.415       .  A
C287        C864   1.404   1_545  A
C288        F304   1.383       .  S
C288        F305   1.380       .  S
C288        F306   1.384       .  S
C290        F301   1.382       .  S
C290        F302   1.385       .  S
C290        F303   1.376       .  S
C292        C293   1.399       .  A
C292        C297   1.520       .  S
C293        C862   1.403       .  A
C293        H298   1.083       .  S
C294        C295   1.414       .  A
C294        C861   1.401       .  A
C295        C296   1.407       .  A
C295        C299   1.516       .  S
C296        C855   1.404       .  A
C296        H300   1.083       .  S
C297        F310   1.385       .  S
C297        F311   1.382       .  S
C297        F312   1.378       .  S
C299        F307   1.382       .  S
C299        F308   1.383       .  S
C299        F309   1.385       .  S
C313        C314   1.396       .  A
C313        C318   1.405       .  A
C313        H323   1.085       .  S
C314        C319   1.472       .  S
C314       C1451   1.410       .  A
C315        C316   1.397       .  A
C315       C1450   1.411       .  A
C315        C320   1.519       .  S
C316       C1453   1.408       .  A
C316        H321   1.085       .  S
C317        C318   1.431       .  A
C317       C1452   1.403       .  A
C318        C322   1.516       .  S
C319        C324   1.411       .  A
C319       C1464   1.399       .  A
C320        F336   1.383       .  S
C320        F337   1.382       .  S
C320        F338   1.384       .  S
C322        F333   1.383       .  S
C322        F334   1.385       .  S
C322        F335   1.366       .  S
C324        C325   1.408       .  A
C324        C329   1.516       .  S
C325        C326   1.406       .  A
C325        H330   1.083       .  S
C326       C1463   1.416       .  A
C327        C328   1.401       .  A
C327       C1462   1.418       .  A
C327        C331   1.521       .  S
C328       C1455   1.400   1_655  A
C328        H332   1.084       .  S
C329        F342   1.384       .  S
C329        F343   1.383       .  S
C329        F344   1.383       .  S
C331        F339   1.385       .  S
C331        F340   1.383       .  S
C331        F341   1.383       .  S
C345        C346   1.401       .  A
C345        C350   1.400       .  A
C345        H355   1.084       .  S
C346        C351   1.479       .  S
C346        C347   1.417       .  A
C347        C348   1.408       .  A
C347        C352   1.518       .  S
C348        C349   1.401       .  A
C348        H353   1.083       .  S
C349        C350   1.413       .  A
C350        C354   1.520       .  S
C351        C356   1.411       .  A
C351        C360   1.398       .  A
C352        F368   1.382       .  S
C352        F369   1.383       .  S
C352        F370   1.384       .  S
C354        F365   1.385       .  S
C354        F366   1.382       .  S
C354        F367   1.383       .  S
C356        C357   1.400       .  A
C356        C361   1.519       .  S
C357        C358   1.406       .  A
C357        H362   1.082       .  S
C358        C359   1.424       .  A
C359        C360   1.405       .  A
C359        C363   1.511       .  S
C360        H364   1.084       .  S
C361        F374   1.385       .  S
C361        F375   1.381       .  S
C361        F376   1.382       .  S
C363        F371   1.381       .  S
C363        F372   1.384       .  S
C363        F373   1.369       .  S
C377        C378   1.403       .  A
C377        C382   1.404       .  A
C377        H387   1.083       .  S
C378        C383   1.479       .  S
C378        C379   1.415       .  A
C379        C380   1.405       .  A
C379        C384   1.520       .  S
C380        C381   1.403       .  A
C380        H385   1.083       .  S
C381        C382   1.414       .  A
C382        C386   1.518       .  S
C383        C388   1.415       .  A
C383        C392   1.397       .  A
C384        F400   1.382       .  S
C384        F401   1.381       .  S
C384        F402   1.385       .  S
C386        F397   1.382       .  S
C386        F398   1.385       .  S
C386        F399   1.384       .  S
C388        C389   1.409       .  A
C388        C393   1.520       .  S
C389        C390   1.405       .  A
C389        H394   1.078       .  S
C390        C391   1.417       .  A
C391        C392   1.399       .  A
C391        C395   1.510       .  S
C392        H396   1.085       .  S
C393        F406   1.384       .  S
C393        F407   1.382       .  S
C393        F408   1.381       .  S
C395        F403   1.382       .  S
C395        F404   1.376       .  S
C395        F405   1.385       .  S
C409        C410   1.394   1_455  A
C409        C414   1.403       .  A
C409        H419   1.085       .  S
C410        C415   1.463       .  S
C410       C1547   1.404       .  A
C411        C412   1.393       .  A
C411       C1546   1.405       .  A
C411        C416   1.521       .  S
C412       C1549   1.408       .  A
C412        H417   1.080       .  S
C413        C414   1.432   1_655  A
C413       C1548   1.410       .  A
C414        C418   1.518       .  S
C415        C420   1.414   1_655  A
C415       C1560   1.396       .  A
C416        F432   1.382       .  S
C416        F433   1.382       .  S
C416        F434   1.382   1_545  S
C418        F429   1.385       .  S
C418        F430   1.383       .  S
C418        F431   1.367       .  S
C420        C421   1.395       .  A
C420        C425   1.520       .  S
C421        C422   1.400   1_455  A
C421        H426   1.083       .  S
C422       C1559   1.422       .  A
C423        C424   1.401       .  A
C423       C1558   1.424       .  A
C423        C427   1.522       .  S
C424       C1551   1.395       .  A
C424        H428   1.083       .  S
C425        F438   1.385       .  S
C425        F439   1.382       .  S
C425        F440   1.381       .  S
C427        F435   1.385       .  S
C427        F436   1.383       .  S
C427        F437   1.383       .  S
C441        C446   1.392       .  A
C441       C1010   1.392       .  A
C441        H451   1.085       .  S
C442        C447   1.476       .  S
C442        C443   1.413       .  A
C442       C1009   1.391   1_565  A
C443        C444   1.412       .  A
C443        C448   1.514       .  S
C444        C445   1.409   1_565  A
C444        H449   1.081       .  S
C445       C1014   1.424       .  A
C446       C1013   1.421       .  A
C446        C450   1.505       .  S
C447        C452   1.416   1_565  A
C447       C1024   1.400       .  A
C448        F464   1.382       .  S
C448        F465   1.383       .  S
C448        F466   1.385       .  S
C450        F461   1.367       .  S
C450       F1598   1.385       .  S
C450       F1599   1.378       .  S
C452        C453   1.405       .  A
C452        C457   1.517       .  S
C453        C454   1.404   1_545  A
C453        H458   1.085       .  S
C454       C1023   1.421       .  A
C455        C456   1.406       .  A
C455       C1022   1.420       .  A
C455        C459   1.521       .  S
C456       C1015   1.402       .  A
C456        H460   1.083       .  S
C457        F470   1.383       .  S
C457        F471   1.383       .  S
C457        F472   1.383       .  S
C459        F467   1.384       .  S
C459        F468   1.382       .  S
C459        F469   1.385       .  S
F462       C1586   1.385       .  S
F463       C1586   1.377       .  S
C473        C474   1.395       .  A
C473        C478   1.400       .  A
C473        H483   1.083       .  S
C474        C479   1.481       .  S
C474        C475   1.413       .  A
C475        C476   1.410       .  A
C475        C480   1.517       .  S
C476        C477   1.407       .  A
C476        H481   1.077       .  S
C477        C478   1.422       .  A
C478        C482   1.512       .  S
C479        C484   1.418       .  A
C479        C488   1.402       .  A
C480        F496   1.381       .  S
C480        F497   1.383       .  S
C480        F498   1.385       .  S
C482        F493   1.385       .  S
C482        F494   1.373       .  S
C482       F1063   1.376       .  S
C484        C485   1.404       .  A
C484        C489   1.517       .  S
C485        C486   1.401       .  A
C485        H490   1.085       .  S
C486        C487   1.419       .  A
C487        C488   1.405       .  A
C487        C491   1.521       .  S
C488        H492   1.082       .  S
C489        F502   1.383       .  S
C489        F503   1.383       .  S
C489        F504   1.382       .  S
C491        F499   1.383       .  S
C491        F500   1.383       .  S
C491        F501   1.385       .  S
F495       C1050   1.374       .  S
C505        C506   1.398   1_655  A
C505        C510   1.405       .  A
C505        H515   1.085       .  S
C506       C1647   1.462   1_455  S
C506        C507   1.407       .  A
C507        C508   1.388       .  A
C507        C512   1.523       .  S
C508        C509   1.406   1_455  A
C508        H513   1.079       .  S
C509        C510   1.426       .  A
C510        C514   1.517       .  S
C511       C1642   1.464       .  S
C511        C516   1.412       .  A
C511       C1656   1.401       .  A
C512        F528   1.382       .  S
C512       F1665   1.383       .  S
C512       F1666   1.384       .  S
C514        F526   1.384       .  S
C514        F527   1.383       .  S
C514       F1661   1.372       .  S
C516        C517   1.391       .  A
C516        C521   1.523       .  S
C517       C1654   1.402       .  A
C517        H522   1.083       .  S
C518        C519   1.416       .  A
C518       C1653   1.402   1_455  A
C519        C520   1.404       .  A
C519        C523   1.517       .  S
C520       C1647   1.401   1_455  A
C520        H524   1.083       .  S
C521        F534   1.385       .  S
C521        F535   1.382       .  S
C521        F536   1.382       .  S
C523        F531   1.385       .  S
C523        F532   1.383       .  S
C523        F533   1.382       .  S
F525       C1650   1.372       .  S
F529       C1648   1.383       .  S
F530       C1648   1.383       .  S
C537        C538   1.399       .  A
C537        C542   1.404       .  A
C537        H547   1.083       .  S
C538       C1111   1.476       .  S
C538       C1107   1.415   1_565  A
C539        C540   1.402       .  A
C539       C1106   1.415       .  A
C539        C544   1.521       .  S
C540       C1109   1.402       .  A
C540        H545   1.083       .  S
C541        C542   1.420       .  A
C541       C1108   1.404   1_565  A
C542        C546   1.520       .  S
C543       C1106   1.475       .  S
C543        C548   1.411       .  A
C543       C1120   1.398       .  A
C544        F561   1.382       .  S
C544        F562   1.385       .  S
C544       F1128   1.381       .  S
C546        F557   1.383       .  S
C546        F558   1.385       .  S
C546        F559   1.383       .  S
C548        C549   1.401       .  A
C548        C553   1.519       .  S
C549       C1118   1.404       .  A
C549        H554   1.081       .  S
C550        C551   1.422       .  A
C550       C1117   1.404   1_545  A
C551        C552   1.405       .  A
C551        C555   1.517       .  S
C552       C1111   1.398   1_545  A
C552        H556   1.083       .  S
C553        F566   1.383       .  S
C553        F567   1.382       .  S
C553        F568   1.382       .  S
C555        F563   1.378       .  S
C555        F564   1.375       .  S
C555        F565   1.385       .  S
F560       C1112   1.381       .  S
C569        H570   1.109       .  S
C569        C575   1.538       .  S
C569        C574   1.544       .  S
C569       C1141   1.549   1_455  S
C571        H572   1.111   1_455  S
C571       C1712   1.528   1_445  S
C573       C1137   1.546   1_565  S
C573        C576   1.368       .  D
C573        C958   1.481       .  S
C574        C577   1.373       .  D
C574        C981   1.490       .  S
C575        C578   1.374       .  D
C575       C1013   1.498       .  S
C576       C1707   1.532   1_565  S
C576       C1045   1.502       .  S
C577       C1077   1.483       .  S
C578       C1118   1.485       .  S
O579        C595   1.280       .  A
O579       Zn585   2.065       .  S
C580        O596   1.275       .  A
C580        O593   1.278       .  A
C580        C633   1.469       .  S
O581        C594   1.276       .  A
O581       Cd588   2.079       .  S
O582        C600   1.277       .  A
O582       Cd591   2.088       .  S
O583        C597   1.273       .  A
O583       Cd587   2.062   1_554  S
O584        C595   1.270       .  A
O584       Cd587   2.039       .  S
Zn585       O596   2.022   1_556  S
Zn585       O598   2.010       .  S
Zn585       O590   1.936       .  S
O586        C597   1.277       .  A
O586       Cd591   2.087       .  S
Cd587       O589   2.069       .  S
Cd587       O590   1.978       .  S
Cd588       O592   2.045       .  S
Cd588       O601   2.064   1_556  S
Cd588       O590   1.984       .  S
O589        C599   1.274       .  A
O590       Cd591   2.000   1_556  S
Cd591       O593   2.082       .  S
O592        C599   1.271       .  A
C594        O598   1.273       .  A
C594        C604   1.462       .  S
C595        C639   1.463       .  S
C597        C659   1.466       .  S
C599        C651   1.451       .  S
C600        O601   1.274       .  A
C600        C645   1.469       .  S
C602        C949   1.469       .  S
C602        N603   1.361       .  A
C602        N607   1.358       .  A
N603        C604   1.356       .  A
C604        N605   1.356       .  A
N605        C606   1.356       .  A
C606        C623   1.458       .  S
C606        N607   1.353       .  A
O608        C624   1.271       .  A
O608       Zn614   1.999   1_554  S
C609        O625   1.276       .  A
C609        O622   1.270       .  A
C609        C653   1.452       .  S
O610        C623   1.277       .  A
O610       Cd617   2.083       .  S
O611        C629   1.275       .  A
O611       Cd620   2.076       .  S
O612        C626   1.278       .  A
O612       Cd616   2.085       .  S
O613        C624   1.277       .  A
O613       Cd616   2.083       .  S
Zn614       O625   2.031       .  S
Zn614       O627   1.992       .  S
Zn614       O619   1.921   1_556  S
O615        C626   1.272       .  A
O615       Cd620   2.054   1_554  S
Cd616       O618   2.089       .  S
Cd616       O619   1.989       .  S
Cd617       O621   2.060   1_556  S
Cd617       O630   2.057       .  S
Cd617       O619   1.974   1_556  S
O618        C628   1.278       .  A
O619       Cd620   1.978   1_554  S
Cd620       O622   2.034       .  S
O621        C628   1.275       .  A
C623        O627   1.271       .  A
C624        C635   1.464       .  S
C626        C647   1.466       .  S
C628        C657   1.466       .  S
C629        O630   1.273       .  A
C629        C641   1.456       .  S
C631        C917   1.460       .  S
C631        N632   1.359       .  A
C631        N636   1.355       .  A
N632        C633   1.356       .  A
C633        N634   1.361       .  A
N634        C635   1.361       .  A
C635        N636   1.352       .  A
C637       C1022   1.482       .  S
C637        N638   1.365       .  A
N638        C639   1.359       .  A
C639        N640   1.355       .  A
C641        N642   1.349       .  A
C643        C894   1.473       .  S
C643        N644   1.360       .  A
C643       N1784   1.360       .  A
N644        C645   1.356       .  A
C645        N646   1.359       .  A
N646       C1783   1.359       .  A
C647       N1782   1.362   1_455  A
C647        N648   1.352       .  A
N648       C1779   1.356   1_455  A
C649        C990   1.468       .  S
C649       N1786   1.354       .  A
C649        N654   1.359   1_655  A
N650       C1785   1.357       .  A
N650        C651   1.352       .  A
C651       N1788   1.353       .  A
N652       C1787   1.356       .  A
N652        C653   1.355   1_655  A
C653        N654   1.351       .  A
C655        C862   1.474       .  S
C655        N656   1.362   1_545  A
N656        C657   1.358       .  A
C657        N658   1.358   1_565  A
C659        N660   1.354       .  A
O661        C677   1.276       .  A
O661       Zn667   2.015       .  S
C662        O678   1.279       .  A
C662        O675   1.273       .  A
C662        C715   1.463       .  S
O663        C676   1.275       .  A
O663       Cd670   2.079       .  S
O664        C682   1.276       .  A
O664       Cd673   2.086       .  S
O665        C679   1.279       .  A
O665       Cd669   2.100       .  S
O666        C677   1.279       .  A
O666       Cd669   2.097       .  S
Zn667       O678   2.049       .  S
Zn667       O680   2.016       .  S
Zn667       O672   1.920       .  S
O668        C679   1.273       .  A
O668       Cd673   2.055       .  S
Cd669       O671   2.087       .  S
Cd669       O672   2.003       .  S
Cd670       O674   2.046       .  S
Cd670       O683   2.041       .  S
Cd670       O672   1.977       .  S
O671        C681   1.278       .  A
O672       Cd673   1.977       .  S
Cd673       O675   2.050       .  S
O674        C681   1.273       .  A
C676        O680   1.273       .  A
C676        C686   1.463       .  S
C677        C733   1.472       .  S
C679        C739   1.469       .  S
C681        C729   1.459       .  S
C682        O683   1.270       .  A
C682        C721   1.454       .  S
C684       C1054   1.473       .  S
C684        N685   1.360       .  A
C684        N689   1.362       .  A
N685        C686   1.355       .  A
C686        N687   1.355       .  A
N687        C688   1.358       .  A
C688        C691   1.469       .  S
C688        N689   1.359       .  A
O690        C706   1.279       .  A
O690       Zn696   2.053       .  S
C691        O707   1.275       .  A
C691        O704   1.277       .  A
O692        C705   1.278       .  A
O692       Cd699   2.086       .  S
O693        C711   1.276       .  A
O693       Cd702   2.073       .  S
O694        C708   1.272       .  A
O694       Cd698   2.047       .  S
O695        C706   1.269       .  A
O695       Cd698   2.030       .  S
Zn696       O707   2.015       .  S
Zn696       O709   2.010       .  S
Zn696       O701   1.924       .  S
O697        C708   1.277       .  A
O697       Cd702   2.088       .  S
Cd698       O700   2.067       .  S
Cd698       O701   1.973       .  S
Cd699       O703   2.060       .  S
Cd699       O712   2.064       .  S
Cd699       O701   1.982       .  S
O700        C710   1.273       .  A
O701       Cd702   1.996       .  S
Cd702       O704   2.086       .  S
O703        C710   1.272       .  A
C705        O709   1.273       .  A
C705        C735   1.462       .  S
C706        C741   1.456       .  S
C708        C717   1.461       .  S
C710        C727   1.456       .  S
C711        O712   1.275       .  A
C711        C723   1.464       .  S
C713       C1109   1.471       .  S
C713        N714   1.361       .  A
N714        C715   1.354       .  A
C715        N716   1.356       .  A
C717        N718   1.354       .  A
C719       C1086   1.468       .  S
C719       N1856   1.353   1_455  A
C719        N724   1.359       .  A
N720       C1855   1.357       .  A
N720        C721   1.348       .  A
C721       N1858   1.355       .  A
N722       C1857   1.356   1_455  A
N722        C723   1.361       .  A
C723        N724   1.359       .  A
C725        C821   1.466       .  S
C725       N1862   1.360       .  A
C725        N730   1.358       .  A
N726       C1861   1.358       .  A
N726        C727   1.354       .  A
C727       N1864   1.356       .  A
N728       C1863   1.356       .  A
N728        C729   1.357       .  A
C729        N730   1.352       .  A
C731        C789   1.470       .  S
C731        N732   1.364       .  A
C731        N736   1.358       .  A
N732        C733   1.360       .  A
C733        N734   1.359       .  A
N734        C735   1.356       .  A
C735        N736   1.353       .  A
C737        C757   1.464       .  S
C737        N742   1.357       .  A
N738        C739   1.356       .  A
N740        C741   1.356       .  A
C741        N742   1.352       .  A
C743        H744   1.105       .  S
C743        C749   1.548   1_545  S
C743        C748   1.538   1_545  S
C743       C1315   1.546       .  S
C745        H746   1.113       .  S
C745       C1887   1.538       .  S
C745       C1888   1.533       .  S
C747       C1311   1.545   1_455  S
C747        C750   1.371       .  D
C747        C926   1.484       .  S
C748        C751   1.378       .  D
C748        C853   1.501   1_565  S
C749        C752   1.374       .  D
C749        C885   1.491       .  S
C750        C798   1.488       .  S
C751       C1881   1.538       .  S
C751        C766   1.485       .  S
C752       C1881   1.534       .  S
C752        C830   1.491       .  S
C753        C758   1.397       .  A
C753        H763   1.084       .  S
C754        C759   1.472       .  S
C754        C755   1.412       .  A
C755        C756   1.406       .  A
C755        C760   1.518       .  S
C756        H761   1.083       .  S
C757        C758   1.415       .  A
C758        C762   1.521       .  S
C759        C764   1.410       .  A
C760        F776   1.382       .  S
C760        F777   1.382       .  S
C760        F778   1.384       .  S
C762        F773   1.385       .  S
C762        F774   1.383       .  S
C762        F775   1.383       .  S
C764        C765   1.396       .  A
C764        C769   1.521       .  S
C765        H770   1.076       .  S
C766        C767   1.421       .  A
C767        C768   1.404       .  A
C767        C771   1.513       .  S
C768        H772   1.085       .  S
C769        F782   1.384       .  S
C769        F783   1.382       .  S
C769        F784   1.382       .  S
C771        F779   1.371       .  S
C771        F780   1.384       .  S
C771        F781   1.383       .  S
C785        C786   1.401       .  A
C785        C790   1.401       .  A
C785        H795   1.084       .  S
C786        C791   1.478       .  S
C786        C787   1.415       .  A
C787        C788   1.410       .  A
C787        C792   1.517       .  S
C788        C789   1.404       .  A
C788        H793   1.083       .  S
C789        C790   1.415       .  A
C790        C794   1.520       .  S
C791        C796   1.414       .  A
C791        C800   1.403       .  A
C792        F808   1.383       .  S
C792        F809   1.383       .  S
C792        F810   1.384       .  S
C794        F805   1.384       .  S
C794        F806   1.384       .  S
C794        F807   1.382       .  S
C796        C797   1.396       .  A
C796        C801   1.520       .  S
C797        C798   1.405       .  A
C797        H802   1.084       .  S
C798        C799   1.421       .  A
C799        C800   1.408       .  A
C799        C803   1.516       .  S
C800        H804   1.084       .  S
C801        F814   1.384       .  S
C801        F815   1.383       .  S
C801        F816   1.382       .  S
C803        F811   1.374       .  S
C803        F812   1.383       .  S
C803        F813   1.384       .  S
C817        C818   1.400       .  A
C817        C822   1.401       .  A
C817        H827   1.084       .  S
C818        C823   1.469       .  S
C818       C1955   1.411       .  A
C819       C1954   1.411   1_655  A
C819        C820   1.402       .  A
C819        C824   1.518       .  S
C820       C1957   1.402   1_655  A
C820        H825   1.084       .  S
C821       C1956   1.404       .  A
C821        C822   1.416       .  A
C822        C826   1.520       .  S
C823        C828   1.411       .  A
C823       C1968   1.395       .  A
C824        F840   1.382   1_655  S
C824       F1977   1.381       .  S
C824        F842   1.385       .  S
C826        F837   1.385       .  S
C826       F1974   1.382       .  S
C826        F839   1.384       .  S
C828        C829   1.400       .  A
C828        C833   1.521       .  S
C829        C830   1.408       .  A
C829        H834   1.083       .  S
C830       C1967   1.427       .  A
C831       C1966   1.425   1_455  A
C831        C832   1.398       .  A
C831        C835   1.514       .  S
C832       C1959   1.393   1_455  A
C832        H836   1.085       .  S
C833        F846   1.385       .  S
C833        F847   1.382       .  S
C833        F848   1.381       .  S
C835        F843   1.385       .  S
C835        F845   1.383       .  S
F838       C1962   1.383       .  S
F841       C1960   1.382       .  S
C849        C854   1.400       .  A
C849        H859   1.085       .  S
C850        C855   1.479       .  S
C850        C851   1.413       .  A
C851        C852   1.408       .  A
C851        C856   1.517       .  S
C852        H857   1.081       .  S
C853        C854   1.428   1_545  A
C854        C858   1.519       .  S
C855        C860   1.416       .  A
C856        F872   1.382       .  S
C856        F873   1.381       .  S
C856        F874   1.385       .  S
C858        F869   1.382       .  S
C858        F870   1.385       .  S
C858        F871   1.372       .  S
C860        C861   1.401       .  A
C860        C865   1.518       .  S
C861        H866   1.083       .  S
C862        C863   1.415   1_545  A
C863        C864   1.407       .  A
C863        C867   1.517       .  S
C864        H868   1.083       .  S
C865        F878   1.385       .  S
C865        F879   1.382       .  S
C865        F880   1.377       .  S
C867        F875   1.382       .  S
C867        F876   1.383       .  S
C867        F877   1.385       .  S
C881        C882   1.399       .  A
C881        C886   1.405       .  A
C881        H891   1.085       .  S
C882        C887   1.472       .  S
C882       C2019   1.413       .  A
C883       C2018   1.410       .  A
C883        C884   1.392       .  A
C883        C888   1.519       .  S
C884       C2021   1.405   1_455  A
C884        H889   1.084       .  S
C885       C2020   1.405       .  A
C885        C886   1.428       .  A
C886        C890   1.521       .  S
C887        C892   1.410       .  A
C887       C2032   1.399       .  A
C888        F904   1.383       .  S
C888        F905   1.382       .  S
C888        F906   1.383       .  S
C890        F901   1.383       .  S
C890        F902   1.385       .  S
C890        F903   1.374       .  S
C892        C893   1.406       .  A
C892        C897   1.516       .  S
C893        C894   1.406       .  A
C893        H898   1.083       .  S
C894       C2031   1.420       .  A
C895       C2030   1.416       .  A
C895        C896   1.394       .  A
C895        C899   1.523       .  S
C896       C2023   1.398   1_655  A
C896        H900   1.084       .  S
C897        F910   1.384       .  S
C897        F911   1.383       .  S
C897        F912   1.383       .  S
C899        F907   1.385       .  S
C899        F908   1.382       .  S
C899        F909   1.384       .  S
C913        C914   1.400       .  A
C913        C918   1.397       .  A
C913        H923   1.084       .  S
C914        C919   1.470       .  S
C914        C915   1.414       .  A
C915        C916   1.406       .  A
C915        C920   1.518       .  S
C916        C917   1.402       .  A
C916        H921   1.083       .  S
C917        C918   1.413       .  A
C918        C922   1.520       .  S
C919        C924   1.410       .  A
C919        C928   1.397       .  A
C920        F936   1.382       .  S
C920        F937   1.382       .  S
C920        F938   1.384       .  S
C922        F933   1.385       .  S
C922        F934   1.382       .  S
C922        F935   1.384       .  S
C924        C925   1.399       .  A
C924        C929   1.520       .  S
C925        C926   1.405       .  A
C925        H930   1.081       .  S
C926        C927   1.422       .  A
C927        C928   1.401       .  A
C927        C931   1.511       .  S
C928        H932   1.085       .  S
C929        F942   1.384       .  S
C929        F943   1.381       .  S
C929        F944   1.381       .  S
C931        F939   1.383       .  S
C931        F940   1.384       .  S
C931        F941   1.366       .  S
C945        C946   1.403       .  A
C945        C950   1.402       .  A
C945        H955   1.083       .  S
C946        C951   1.472       .  S
C946        C947   1.416       .  A
C947        C948   1.402       .  A
C947        C952   1.519       .  S
C948        C949   1.403       .  A
C948        H953   1.085       .  S
C949        C950   1.414       .  A
C950        C954   1.519       .  S
C951        C956   1.413       .  A
C951        C960   1.396       .  A
C952        F968   1.383       .  S
C952        F969   1.382       .  S
C952        F970   1.383       .  S
C954        F965   1.382       .  S
C954        F966   1.385       .  S
C954        F967   1.384       .  S
C956        C957   1.406       .  A
C956        C961   1.518       .  S
C957        C958   1.404       .  A
C957        H962   1.080       .  S
C958        C959   1.416       .  A
C959        C960   1.396       .  A
C959        C963   1.510       .  S
C960        H964   1.085       .  S
C961        F974   1.385       .  S
C961        F975   1.382       .  S
C961        F976   1.383       .  S
C963        F971   1.382       .  S
C963        F972   1.375       .  S
C963        F973   1.384       .  S
C977        C978   1.394   1_455  A
C977        C982   1.402       .  A
C977        H987   1.085       .  S
C978        C983   1.465       .  S
C978       C2115   1.406       .  A
C979       C2114   1.406       .  A
C979        C980   1.394       .  A
C979        C984   1.521       .  S
C980       C2117   1.408       .  A
C980        H985   1.081       .  S
C981       C2116   1.408   1_455  A
C981        C982   1.432       .  A
C982        C986   1.518       .  S
C983        C988   1.414   1_655  A
C983       C2128   1.397       .  A
C984       F1000   1.382       .  S
C984       F1001   1.382       .  S
C984       F1002   1.383       .  S
C986        F997   1.385       .  S
C986        F998   1.383       .  S
C986        F999   1.367       .  S
C988        C989   1.393       .  A
C988        C993   1.520       .  S
C989        C990   1.400   1_455  A
C989        H994   1.083       .  S
C990       C2127   1.423       .  A
C991       C2126   1.421       .  A
C991        C992   1.401       .  A
C991        C995   1.520       .  S
C992       C2119   1.397       .  A
C992        H996   1.083       .  S
C993       F1006   1.385       .  S
C993       F1007   1.382       .  S
C993       F1008   1.381       .  S
C995       F1003   1.385       .  S
C995       F1004   1.384       .  S
C995       F1005   1.383       .  S
C1009      C1014   1.392       .  A
C1009      H1019   1.085       .  S
C1010      C1015   1.478       .  S
C1010      C1011   1.414       .  A
C1011      C1012   1.413       .  A
C1011      C1016   1.513       .  S
C1012      C1013   1.408       .  A
C1012      H1017   1.081       .  S
C1014      C1018   1.509       .  S
C1015      C1020   1.416       .  A
C1016      F1032   1.382       .  S
C1016      F1033   1.383       .  S
C1016      F1034   1.384       .  S
C1018      F1029   1.367       .  S
C1018      F2166   1.385       .  S
C1018      F2167   1.378       .  S
C1020      C1021   1.404       .  A
C1020      C1025   1.519       .  S
C1021      C1022   1.405       .  A
C1021      H1026   1.085       .  S
C1023      C1024   1.404       .  A
C1023      C1027   1.522       .  S
C1024      H1028   1.083       .  S
C1025      F1038   1.383       .  S
C1025      F1039   1.383       .  S
C1025      F1040   1.383       .  S
C1027      F1035   1.384       .  S
C1027      F1036   1.382       .  S
C1027      F1037   1.385       .  S
F1030      C2154   1.385       .  S
F1031      C2154   1.376       .  S
C1041      C1042   1.395       .  A
C1041      C1046   1.401       .  A
C1041      H1051   1.083       .  S
C1042      C1047   1.481       .  S
C1042      C1043   1.414       .  A
C1043      C1044   1.410       .  A
C1043      C1048   1.519       .  S
C1044      C1045   1.407       .  A
C1044      H1049   1.077       .  S
C1045      C1046   1.424       .  A
C1046      C1050   1.512       .  S
C1047      C1052   1.417       .  A
C1047      C1056   1.401       .  A
C1048      F1064   1.382       .  S
C1048      F1065   1.381       .  S
C1048      F1066   1.385       .  S
C1050      F1061   1.385       .  S
C1050      F1062   1.375   1_565  S
C1052      C1053   1.410       .  A
C1052      C1057   1.519       .  S
C1053      C1054   1.404       .  A
C1053      H1058   1.083       .  S
C1054      C1055   1.415       .  A
C1055      C1056   1.401       .  A
C1055      C1059   1.520       .  S
C1056      H1060   1.082       .  S
C1057      F1070   1.385       .  S
C1057      F1071   1.382       .  S
C1057      F1072   1.381       .  S
C1059      F1067   1.383       .  S
C1059      F1068   1.382       .  S
C1059      F1069   1.384       .  S
C1073      C1074   1.398   1_655  A
C1073      C1078   1.403       .  A
C1073      H1083   1.085       .  S
C1074      C2215   1.464       .  S
C1074      C1075   1.411       .  A
C1075      C1076   1.391       .  A
C1075      C1080   1.524       .  S
C1076      C1077   1.404       .  A
C1076      H1081   1.079       .  S
C1077      C1078   1.424   1_455  A
C1078      C1082   1.516       .  S
C1079      C2210   1.472       .  S
C1079      C1084   1.414       .  A
C1079      C2224   1.402       .  A
C1080      F1096   1.382       .  S
C1080      F2233   1.383       .  S
C1080      F2234   1.384       .  S
C1082      F2229   1.374       .  S
C1082      F1094   1.384       .  S
C1082      F1095   1.383       .  S
C1084      C1085   1.394       .  A
C1084      C1089   1.523       .  S
C1085      C2222   1.404       .  A
C1085      H1090   1.082       .  S
C1086      C2221   1.403   1_455  A
C1086      C1087   1.417       .  A
C1087      C1088   1.405       .  A
C1087      C1091   1.517       .  S
C1088      C2215   1.402       .  A
C1088      H1092   1.083       .  S
C1089      F1102   1.385       .  S
C1089      F1103   1.382       .  S
C1089      F1104   1.382       .  S
C1091      F1099   1.385       .  S
C1091      F1100   1.383       .  S
C1091      F1101   1.382       .  S
F1093      C2218   1.374       .  S
F1097      C2216   1.383       .  S
F1098      C2216   1.384       .  S
C1105      C1106   1.400       .  A
C1105      C1110   1.404       .  A
C1105      H1115   1.083       .  S
C1107      C1108   1.402       .  A
C1107      C1112   1.520       .  S
C1108      H1113   1.083       .  S
C1109      C1110   1.417       .  A
C1110      C1114   1.519       .  S
C1111      C1116   1.411       .  A
C1112      F1129   1.383       .  S
C1112      F1130   1.385       .  S
C1114      F1125   1.382       .  S
C1114      F1126   1.385       .  S
C1114      F1127   1.383       .  S
C1116      C1117   1.400       .  A
C1116      C1121   1.520       .  S
C1117      H1122   1.081       .  S
C1118      C1119   1.422       .  A
C1119      C1120   1.405       .  A
C1119      C1123   1.517       .  S
C1120      H1124   1.083       .  S
C1121      F1134   1.383       .  S
C1121      F1135   1.381       .  S
C1121      F1136   1.383       .  S
C1123      F1131   1.378       .  S
C1123      F1132   1.374       .  S
C1123      F1133   1.385       .  S
C1137      H1138   1.109       .  S
C1137      C1143   1.535       .  S
C1137      C1142   1.547       .  S
C1139      H1140   1.111       .  S
C1139      C1713   1.545       .  S
C1139      C1714   1.549       .  S
C1141      C1144   1.374       .  D
C1141      C1526   1.490       .  S
C1142      C1145   1.377       .  D
C1142      C1549   1.489       .  S
C1143      C1146   1.375       .  D
C1143      C1581   1.501       .  S
C1144      C1613   1.503       .  S
C1145      C1707   1.544       .  S
C1145      C1645   1.488       .  S
C1146      C1707   1.551       .  S
C1146      C1686   1.485       .  S
O1147      C1163   1.281       .  A
O1147     Zn1153   2.072       .  S
C1148      O1164   1.276       .  A
C1148      O1161   1.276       .  A
C1148      C1201   1.461       .  S
O1149      C1162   1.277       .  A
O1149     Cd1156   2.087       .  S
O1150      C1168   1.278       .  A
O1150     Cd1159   2.093       .  S
O1151      C1165   1.274       .  A
O1151     Cd1155   2.067   1_554  S
O1152      C1163   1.271       .  A
O1152     Cd1155   2.045       .  S
Zn1153     O1164   2.019   1_556  S
Zn1153     O1166   2.016       .  S
Zn1153     O1158   1.940       .  S
O1154      C1165   1.277       .  A
O1154     Cd1159   2.091       .  S
Cd1155     O1157   2.067       .  S
Cd1155     O1158   1.975       .  S
Cd1156     O1160   2.036       .  S
Cd1156     O1169   2.069   1_556  S
Cd1156     O1158   1.986       .  S
O1157      C1167   1.275       .  A
O1158     Cd1159   1.997   1_556  S
Cd1159     O1161   2.063       .  S
O1160      C1167   1.271       .  A
C1162      O1166   1.274       .  A
C1162      C1172   1.467       .  S
C1163      C1207   1.466       .  S
C1165      C1227   1.472       .  S
C1167      C1219   1.448       .  S
C1168      O1169   1.274       .  A
C1168      C1213   1.473       .  S
C1170      C1517   1.479       .  S
C1170      N1171   1.364       .  A
C1170      N1175   1.360       .  A
N1171      C1172   1.358       .  A
C1172      N1173   1.357       .  A
N1173      C1174   1.356       .  A
C1174      C1191   1.464       .  S
C1174      N1175   1.354       .  A
O1176      C1192   1.272       .  A
O1176     Zn1182   2.000   1_554  S
C1177      O1193   1.276       .  A
C1177      O1190   1.270       .  A
C1177      C1221   1.453       .  S
O1178      C1191   1.278       .  A
O1178     Cd1185   2.091       .  S
O1179      C1197   1.275       .  A
O1179     Cd1188   2.071       .  S
O1180      C1194   1.278       .  A
O1180     Cd1184   2.092       .  S
O1181      C1192   1.276       .  A
O1181     Cd1184   2.074       .  S
Zn1182     O1193   2.032       .  S
Zn1182     O1195   2.000       .  S
Zn1182     O1187   1.929       .  S
O1183      C1194   1.272       .  A
O1183     Cd1188   2.056   1_554  S
Cd1184     O1186   2.088       .  S
Cd1184     O1187   1.995   1_554  S
Cd1185     O1189   2.063   1_556  S
Cd1185     O1198   2.054       .  S
Cd1185     O1187   1.981       .  S
O1186      C1196   1.278       .  A
O1187     Cd1188   1.979       .  S
Cd1188     O1190   2.033       .  S
O1189      C1196   1.275       .  A
C1191      O1195   1.271       .  A
C1192      C1203   1.461       .  S
C1194      C1215   1.470       .  S
C1196      C1225   1.467       .  S
C1197      O1198   1.273       .  A
C1197      C1209   1.454       .  S
C1199      C1485   1.459       .  S
C1199      N1200   1.354       .  A
C1199      N1204   1.356       .  A
N1200      C1201   1.352       .  A
C1201      N1202   1.358       .  A
N1202      C1203   1.360       .  A
C1203      N1204   1.355       .  A
C1205      C1590   1.481       .  S
C1205      N1206   1.367   1_565  A
C1205      N1778   1.361       .  A
N1206      C1207   1.361       .  A
C1207      N1208   1.355   1_545  A
N1208      C1777   1.352       .  A
C1209      N1776   1.354       .  A
C1209      N1210   1.351       .  A
N1210      C1773   1.356       .  A
C1211      C1462   1.471       .  S
C1211      N1212   1.360       .  A
N1212      C1213   1.357       .  A
C1213      N1214   1.361       .  A
C1215      N1216   1.355       .  A
C1217      C1558   1.469       .  S
C1217      N1222   1.361       .  A
N1218      C1219   1.349       .  A
N1220      C1221   1.354       .  A
C1221      N1222   1.353       .  A
C1223      C1430   1.465       .  S
C1223      N1224   1.361       .  A
C1223      N1796   1.357       .  A
N1224      C1225   1.358       .  A
C1225      N1226   1.358       .  A
N1226      C1795   1.357       .  A
C1227      N1794   1.357       .  A
C1227      N1228   1.357       .  A
N1228      C1791   1.363       .  A
O1229      C1245   1.275       .  A
O1229     Zn1235   2.009       .  S
C1230      O1246   1.279       .  A
C1230      O1243   1.274       .  A
C1230      C1283   1.464       .  S
O1231      C1244   1.275       .  A
O1231     Cd1238   2.081       .  S
O1232      C1250   1.276       .  A
O1232     Cd1241   2.083       .  S
O1233      C1247   1.277       .  A
O1233     Cd1237   2.094       .  S
O1234      C1245   1.277       .  A
O1234     Cd1237   2.084       .  S
Zn1235     O1246   2.050       .  S
Zn1235     O1248   2.030       .  S
Zn1235     O1240   1.924       .  S
O1236      C1247   1.273       .  A
O1236     Cd1241   2.057       .  S
Cd1237     O1239   2.083       .  S
Cd1237     O1240   2.004       .  S
Cd1238     O1242   2.042       .  S
Cd1238     O1251   2.029       .  S
Cd1238     O1240   1.983       .  S
O1239      C1249   1.277       .  A
O1240     Cd1241   1.979       .  S
Cd1241     O1243   2.054       .  S
O1242      C1249   1.271       .  A
C1244      O1248   1.275       .  A
C1244      C1254   1.468       .  S
C1245      C1301   1.464       .  S
C1247      C1307   1.469       .  S
C1249      C1297   1.457       .  S
C1250      O1251   1.268       .  A
C1250      C1289   1.450       .  S
C1252      C1622   1.481       .  S
C1252      N1253   1.362       .  A
C1252      N1257   1.366       .  A
N1253      C1254   1.357       .  A
C1254      N1255   1.355       .  A
N1255      C1256   1.358       .  A
C1256      C1259   1.475       .  S
C1256      N1257   1.362       .  A
O1258      C1274   1.279       .  A
O1258     Zn1264   2.058       .  S
C1259      O1275   1.276       .  A
C1259      O1272   1.278       .  A
O1260      C1273   1.275       .  A
O1260     Cd1267   2.065       .  S
O1261      C1279   1.278       .  A
O1261     Cd1270   2.087       .  S
O1262      C1276   1.272       .  A
O1262     Cd1266   2.048       .  S
O1263      C1274   1.272       .  A
O1263     Cd1266   2.047       .  S
Zn1264     O1275   2.020       .  S
Zn1264     O1277   2.014       .  S
Zn1264     O1269   1.925       .  S
O1265      C1276   1.278       .  A
O1265     Cd1270   2.089       .  S
Cd1266     O1268   2.090       .  S
Cd1266     O1269   1.977       .  S
Cd1267     O1271   2.049       .  S
Cd1267     O1280   2.049       .  S
Cd1267     O1269   1.981       .  S
O1268      C1278   1.276       .  A
O1269     Cd1270   2.002       .  S
Cd1270     O1272   2.102       .  S
O1271      C1278   1.270       .  A
C1273      O1277   1.274       .  A
C1273      C1303   1.456       .  S
C1274      C1309   1.462       .  S
C1276      C1285   1.461       .  S
C1278      C1295   1.462       .  S
C1279      O1280   1.273       .  A
C1279      C1291   1.465       .  S
C1281      C1677   1.471       .  S
C1281      N1282   1.361   1_565  A
C1281      N1854   1.358       .  A
N1282      C1283   1.354       .  A
C1283      N1284   1.357   1_545  A
N1284      C1853   1.358       .  A
C1285      N1852   1.357       .  A
C1285      N1286   1.354       .  A
N1286      C1849   1.359       .  A
C1287      C1654   1.465       .  S
C1287      N1292   1.358       .  A
N1288      C1289   1.345       .  A
N1290      C1291   1.362       .  A
C1291      N1292   1.357       .  A
C1293      C1389   1.462       .  S
C1293      N1298   1.356   1_455  A
N1294      C1295   1.353       .  A
N1296      C1297   1.358   1_455  A
C1297      N1298   1.350       .  A
C1299      C1357   1.469       .  S
C1299      N1300   1.363       .  A
C1299      N1304   1.357       .  A
N1300      C1301   1.359       .  A
C1301      N1302   1.357       .  A
N1302      C1303   1.353       .  A
C1303      N1304   1.352       .  A
C1305      C1325   1.461       .  S
C1305      N1874   1.358       .  A
C1305      N1310   1.358       .  A
N1306      C1873   1.362   1_545  A
N1306      C1307   1.359       .  A
C1307      N1876   1.359   1_545  A
N1308      C1875   1.359       .  A
N1308      C1309   1.358       .  A
C1309      N1310   1.354       .  A
C1311      H1312   1.108   1_655  S
C1311      C1317   1.547       .  S
C1311      C1316   1.533       .  S
C1313      H1314   1.112       .  S
C1313      C1886   1.532       .  S
C1315      C1318   1.373       .  D
C1315      C1494   1.487       .  S
C1316      C1319   1.372       .  D
C1316      C1421   1.484       .  S
C1317      C1320   1.379       .  D
C1317      C1453   1.498   1_655  S
C1318      C1881   1.529   1_545  S
C1318      C1366   1.485       .  S
C1319      C1334   1.489       .  S
C1320      C1398   1.489       .  S
C1321      C1890   1.401       .  A
C1321      C1326   1.398       .  A
C1321      H1331   1.084       .  S
C1322      C1327   1.470       .  S
C1322      C1889   1.399       .  A
C1322      C1323   1.411   1_565  A
C1323      C1324   1.406       .  A
C1323      C1328   1.516       .  S
C1324      C1893   1.405   1_545  A
C1324      H1329   1.083       .  S
C1325      C1892   1.403       .  A
C1325      C1326   1.412       .  A
C1326      C1330   1.519       .  S
C1327      C1332   1.412   1_565  A
C1327      C1904   1.402       .  A
C1328      F1344   1.383   1_545  S
C1328      F1345   1.383       .  S
C1328      F1346   1.384       .  S
C1330      F1341   1.385       .  S
C1330      F1342   1.382       .  S
C1330      F1343   1.383       .  S
C1332      C1333   1.394       .  A
C1332      C1337   1.521       .  S
C1333      C1902   1.401   1_545  A
C1333      H1338   1.072       .  S
C1334      C1901   1.401       .  A
C1334      C1335   1.422       .  A
C1335      C1336   1.407       .  A
C1335      C1339   1.513       .  S
C1336      C1895   1.399       .  A
C1336      H1340   1.084       .  S
C1337      F1350   1.383       .  S
C1337      F1351   1.384       .  S
C1337      F1352   1.381       .  S
C1339      F1347   1.378       .  S
C1339      F1348   1.385       .  S
C1339      F1349   1.374       .  S
C1353      C1354   1.400       .  A
C1353      C1358   1.400       .  A
C1353      H1363   1.084       .  S
C1354      C1359   1.475       .  S
C1354      C1355   1.413       .  A
C1355      C1356   1.408       .  A
C1355      C1360   1.518       .  S
C1356      C1357   1.403       .  A
C1356      H1361   1.083       .  S
C1357      C1358   1.416       .  A
C1358      C1362   1.521       .  S
C1359      C1364   1.411       .  A
C1359      C1368   1.403       .  A
C1360      F1376   1.382       .  S
C1360      F1377   1.382       .  S
C1360      F1378   1.384       .  S
C1362      F1373   1.384       .  S
C1362      F1374   1.385       .  S
C1362      F1375   1.382       .  S
C1364      C1365   1.395       .  A
C1364      C1369   1.523       .  S
C1365      C1366   1.406       .  A
C1365      H1370   1.082       .  S
C1366      C1367   1.420       .  A
C1367      C1368   1.409       .  A
C1367      C1371   1.516       .  S
C1368      H1372   1.084       .  S
C1369      F1382   1.385       .  S
C1369      F1383   1.382       .  S
C1369      F1384   1.382       .  S
C1371      F1379   1.376       .  S
C1371      F1380   1.383       .  S
C1371      F1381   1.384       .  S
C1385      C1386   1.400   1_455  A
C1385      C1390   1.400       .  A
C1385      H1395   1.084       .  S
C1386      C1391   1.465       .  S
C1387      C1388   1.403       .  A
C1387      C1392   1.519       .  S
C1388      H1393   1.083       .  S
C1389      C1390   1.415       .  A
C1390      C1394   1.519       .  S
C1391      C1396   1.408       .  A
C1392      F1408   1.382       .  S
C1392      F1410   1.385       .  S
C1394      F1405   1.385       .  S
C1394      F1407   1.383       .  S
C1396      C1397   1.396       .  A
C1396      C1401   1.522       .  S
C1397      C1398   1.410       .  A
C1397      H1402   1.082       .  S
C1399      C1400   1.400       .  A
C1399      C1403   1.516       .  S
C1400      H1404   1.085       .  S
C1401      F1414   1.385       .  S
C1401      F1415   1.382       .  S
C1401      F1416   1.381       .  S
C1403      F1411   1.385       .  S
C1403      F1980   1.375       .  S
C1403      F1413   1.382       .  S
F1412      C1971   1.368       .  S
C1417      C1986   1.395       .  A
C1417      C1422   1.398       .  A
C1417      H1427   1.084       .  S
C1418      C1423   1.480   1_565  S
C1418      C1985   1.396       .  A
C1418      C1419   1.412   1_565  A
C1419      C1420   1.408       .  A
C1419      C1424   1.518       .  S
C1420      C1989   1.407   1_545  A
C1420      H1425   1.082       .  S
C1421      C1988   1.406       .  A
C1421      C1422   1.424       .  A
C1422      C1426   1.518       .  S
C1423      C1428   1.415       .  A
C1423      C2000   1.404   1_545  A
C1424      F1440   1.383       .  S
C1424      F1441   1.382       .  S
C1424      F1442   1.384       .  S
C1426      F1437   1.379       .  S
C1426      F1438   1.385       .  S
C1426      F1439   1.375       .  S
C1428      C1429   1.400       .  A
C1428      C1433   1.520       .  S
C1429      C1998   1.400       .  A
C1429      H1434   1.084       .  S
C1430      C1997   1.399       .  A
C1430      C1431   1.412       .  A
C1431      C1432   1.407       .  A
C1431      C1435   1.516       .  S
C1432      C1991   1.404       .  A
C1432      H1436   1.083       .  S
C1433      F1446   1.385       .  S
C1433      F1447   1.382       .  S
C1433      F1448   1.379       .  S
C1435      F1443   1.382       .  S
C1435      F1444   1.383       .  S
C1435      F1445   1.385       .  S
C1449      C1450   1.397   1_655  A
C1449      C1454   1.406       .  A
C1449      H1459   1.085       .  S
C1450      C1455   1.473       .  S
C1451      C1452   1.394       .  A
C1451      C1456   1.518       .  S
C1452      H1457   1.078       .  S
C1453      C1454   1.430   1_455  A
C1454      C1458   1.517       .  S
C1455      C1460   1.410       .  A
C1456      F1472   1.383       .  S
C1456      F1473   1.382       .  S
C1456      F1474   1.384       .  S
C1458      F1469   1.382       .  S
C1458      F1470   1.385       .  S
C1458      F1471   1.367       .  S
C1460      C1461   1.406       .  A
C1460      C1465   1.516       .  S
C1461      C1462   1.406   1_455  A
C1461      H1466   1.083       .  S
C1463      C1464   1.396       .  A
C1463      C1467   1.522       .  S
C1464      H1468   1.084       .  S
C1465      F1478   1.384       .  S
C1465      F1479   1.383       .  S
C1465      F1480   1.383       .  S
C1467      F1475   1.385       .  S
C1467      F1476   1.382       .  S
C1467      F1477   1.384       .  S
C1481      C1482   1.399       .  A
C1481      C1486   1.396       .  A
C1481      H1491   1.084       .  S
C1482      C1487   1.469       .  S
C1482      C1483   1.413       .  A
C1483      C1484   1.406       .  A
C1483      C1488   1.518       .  S
C1484      C1485   1.402       .  A
C1484      H1489   1.083       .  S
C1485      C1486   1.414       .  A
C1486      C1490   1.522       .  S
C1487      C1492   1.410       .  A
C1487      C1496   1.396       .  A
C1488      F1504   1.382       .  S
C1488      F1505   1.381       .  S
C1488      F1506   1.384       .  S
C1490      F1501   1.384       .  S
C1490      F1502   1.382       .  S
C1490      F1503   1.384       .  S
C1492      C1493   1.400       .  A
C1492      C1497   1.519       .  S
C1493      C1494   1.405       .  A
C1493      H1498   1.083       .  S
C1494      C1495   1.423       .  A
C1495      C1496   1.401       .  A
C1495      C1499   1.510       .  S
C1496      H1500   1.085       .  S
C1497      F1510   1.382       .  S
C1497      F1511   1.382       .  S
C1497      F1512   1.381       .  S
C1499      F1507   1.383       .  S
C1499      F1508   1.384       .  S
C1499      F1509   1.365       .  S
C1513      C1514   1.401       .  A
C1513      C1518   1.404       .  A
C1513      H1523   1.083       .  S
C1514      C1519   1.479       .  S
C1514      C1515   1.414       .  A
C1515      C1516   1.406       .  A
C1515      C1520   1.520       .  S
C1516      C1517   1.406       .  A
C1516      H1521   1.083       .  S
C1517      C1518   1.419       .  A
C1518      C1522   1.520       .  S
C1519      C1524   1.415       .  A
C1519      C1528   1.396       .  A
C1520      F1536   1.382       .  S
C1520      F1537   1.383       .  S
C1520      F1538   1.384       .  S
C1522      F1533   1.383       .  S
C1522      F1534   1.385       .  S
C1522      F1535   1.383       .  S
C1524      C1525   1.407       .  A
C1524      C1529   1.519       .  S
C1525      C1526   1.403       .  A
C1525      H1530   1.077       .  S
C1526      C1527   1.418       .  A
C1527      C1528   1.400       .  A
C1527      C1531   1.510   1_655  S
C1528      H1532   1.084       .  S
C1529      F1542   1.385       .  S
C1529      F1543   1.382       .  S
C1529      F1544   1.382       .  S
C1531      F1539   1.379       .  S
C1531      F1540   1.380       .  S
C1531      F1541   1.385       .  S
C1545      C1546   1.395       .  A
C1545      C1550   1.403       .  A
C1545      H1555   1.085       .  S
C1546      C1551   1.465       .  S
C1547      C1548   1.394       .  A
C1547      C1552   1.521       .  S
C1548      H1553   1.081       .  S
C1549      C1550   1.430       .  A
C1550      C1554   1.516       .  S
C1551      C1556   1.413       .  A
C1552      F1568   1.382       .  S
C1552      F1569   1.382       .  S
C1552      F1570   1.381   1_545  S
C1554      F1565   1.385       .  S
C1554      F1566   1.383       .  S
C1554      F1567   1.367       .  S
C1556      C1557   1.396       .  A
C1556      C1561   1.520       .  S
C1557      C1558   1.401       .  A
C1557      H1562   1.083       .  S
C1559      C1560   1.400       .  A
C1559      C1563   1.521       .  S
C1560      H1564   1.084       .  S
C1561      F1574   1.385       .  S
C1561      F1575   1.382       .  S
C1561      F1576   1.382       .  S
C1563      F1571   1.385       .  S
C1563      F1572   1.384       .  S
C1563      F1573   1.383       .  S
C1577      C2146   1.389       .  A
C1577      C1582   1.389       .  A
C1577      H1587   1.085       .  S
C1578      C1583   1.478   1_545  S
C1578      C2145   1.392       .  A
C1578      C1579   1.415   1_545  A
C1579      C1580   1.409       .  A
C1579      C1584   1.513       .  S
C1580      C1581   1.408   1_565  A
C1580      H1585   1.082       .  S
C1581      C2150   1.426       .  A
C1582      C2149   1.422       .  A
C1582      C1586   1.506       .  S
C1583      C1588   1.416   1_565  A
C1583      C2160   1.402       .  A
C1584      F1600   1.383       .  S
C1584      F1601   1.383       .  S
C1584      F1602   1.384       .  S
C1586      F1597   1.367       .  S
C1588      C1589   1.406       .  A
C1588      C1593   1.517       .  S
C1589      C1590   1.405   1_545  A
C1589      H1594   1.085       .  S
C1590      C2159   1.419       .  A
C1591      C2158   1.419       .  A
C1591      C1592   1.404       .  A
C1591      C1595   1.521       .  S
C1592      C2151   1.402       .  A
C1592      H1596   1.083       .  S
C1593      F1606   1.384       .  S
C1593      F1607   1.383       .  S
C1593      F1608   1.383       .  S
C1595      F1603   1.384       .  S
C1595      F1604   1.382       .  S
C1595      F1605   1.385       .  S
C1609      C1610   1.396       .  A
C1609      C1614   1.402       .  A
C1609      H1619   1.084       .  S
C1610      C1615   1.488       .  S
C1610      C1611   1.415       .  A
C1611      C1612   1.413       .  A
C1611      C1616   1.517       .  S
C1612      C1613   1.407       .  A
C1612      H1617   1.081       .  S
C1613      C1614   1.426       .  A
C1614      C1618   1.515       .  S
C1615      C1620   1.419       .  A
C1615      C1624   1.403       .  A
C1616      F1632   1.381       .  S
C1616      F1633   1.380       .  S
C1616      F1634   1.385       .  S
C1618      F1629   1.385       .  S
C1618      F1630   1.373       .  S
C1618      F2199   1.376       .  S
C1620      C1621   1.412       .  A
C1620      C1625   1.520       .  S
C1621      C1622   1.404       .  A
C1621      H1626   1.083       .  S
C1622      C1623   1.417       .  A
C1623      C1624   1.406       .  A
C1623      C1627   1.519       .  S
C1624      H1628   1.083       .  S
C1625      F1638   1.384       .  S
C1625      F1639   1.381       .  S
C1625      F1640   1.381       .  S
C1627      F1635   1.384       .  S
C1627      F1636   1.382       .  S
C1627      F1637   1.385       .  S
F1631      C2186   1.374       .  S
C1641      C1642   1.397       .  A
C1641      C1646   1.404       .  A
C1641      H1651   1.085       .  S
C1642      C1643   1.408       .  A
C1643      C1644   1.391       .  A
C1643      C1648   1.522       .  S
C1644      C1645   1.406       .  A
C1644      H1649   1.079       .  S
C1645      C1646   1.426       .  A
C1646      C1650   1.515       .  S
C1647      C1652   1.413       .  A
C1648      F1664   1.382       .  S
C1650      F1662   1.385       .  S
C1650      F1663   1.383       .  S
C1652      C1653   1.392       .  A
C1652      C1657   1.523       .  S
C1653      H1658   1.083       .  S
C1654      C1655   1.416       .  A
C1655      C1656   1.405       .  A
C1655      C1659   1.518       .  S
C1656      H1660   1.083       .  S
C1657      F1670   1.385       .  S
C1657      F1671   1.382       .  S
C1657      F1672   1.382       .  S
C1659      F1667   1.385       .  S
C1659      F1668   1.383       .  S
C1659      F1669   1.382       .  S
C1673      C1674   1.399       .  A
C1673      C1678   1.403       .  A
C1673      H1683   1.083       .  S
C1674      C2247   1.473       .  S
C1674      C2243   1.415   1_565  A
C1675      C2242   1.415       .  A
C1675      C1676   1.401       .  A
C1675      C1680   1.520       .  S
C1676      C2245   1.402       .  A
C1676      H1681   1.083       .  S
C1677      C2244   1.402   1_565  A
C1677      C1678   1.419       .  A
C1678      C1682   1.519       .  S
C1679      C2242   1.473       .  S
C1679      C1684   1.410       .  A
C1679      C2256   1.395       .  A
C1680      F2264   1.381       .  S
C1680      F1697   1.382       .  S
C1680      F1698   1.385       .  S
C1682      F1693   1.382       .  S
C1682      F1694   1.385       .  S
C1682      F1695   1.383       .  S
C1684      C1685   1.402       .  A
C1684      C1689   1.519       .  S
C1685      C2254   1.405       .  A
C1685      H1690   1.081       .  S
C1686      C2253   1.404   1_545  A
C1686      C1687   1.422       .  A
C1687      C1688   1.404       .  A
C1687      C1691   1.516       .  S
C1688      C2247   1.398   1_545  A
C1688      H1692   1.083       .  S
C1689      F1702   1.383       .  S
C1689      F1703   1.382       .  S
C1689      F1704   1.383       .  S
C1691      F1699   1.377       .  S
C1691      F1700   1.375       .  S
C1691      F1701   1.385       .  S
F1696      C2248   1.381       .  S
C1705      H1706   1.110       .  S
C1705      C1711   1.536       .  S
C1705      C1710   1.546       .  S
C1707      H1708   1.111       .  S
C1709      C1712   1.368       .  D
C1709      C2094   1.482       .  S
C1710      C1713   1.376       .  D
C1710      C2117   1.492       .  S
C1711      C1714   1.374       .  D
C1711      C2149   1.496       .  S
C1712      C2181   1.497       .  S
C1713      C2213   1.488       .  S
C1714      C2254   1.488       .  S
O1715      C1731   1.280       .  A
O1715     Zn1721   2.067       .  S
C1716      O1732   1.275       .  A
C1716      O1729   1.280       .  A
C1716      C1769   1.472       .  S
O1717      C1730   1.275       .  A
O1717     Cd1724   2.068       .  S
O1718      C1736   1.278       .  A
O1718     Cd1727   2.097       .  S
O1719      C1733   1.272       .  A
O1719     Cd1723   2.052   1_554  S
O1720      C1731   1.272       .  A
O1720     Cd1723   2.046       .  S
Zn1721     O1732   2.019   1_556  S
Zn1721     O1734   2.010       .  S
Zn1721     O1726   1.935       .  S
O1722      C1733   1.277       .  A
O1722     Cd1727   2.082       .  S
Cd1723     O1725   2.070       .  S
Cd1723     O1726   1.977       .  S
Cd1724     O1728   2.037       .  S
Cd1724     O1737   2.056   1_556  S
Cd1724     O1726   1.979       .  S
O1725      C1735   1.274       .  A
O1726     Cd1727   1.994   1_556  S
Cd1727     O1729   2.092       .  S
O1728      C1735   1.270       .  A
C1730      O1734   1.274       .  A
C1730      C1740   1.458       .  S
C1731      C1775   1.466       .  S
C1733      C1795   1.462       .  S
C1735      C1787   1.449       .  S
C1736      O1737   1.272       .  A
C1736      C1781   1.471       .  S
C1738      C2085   1.465       .  S
C1738      N1739   1.358       .  A
C1738      N1743   1.359       .  A
N1739      C1740   1.352       .  A
C1740      N1741   1.356       .  A
N1741      C1742   1.357       .  A
C1742      C1759   1.461       .  S
C1742      N1743   1.355       .  A
O1744      C1760   1.273       .  A
O1744     Zn1750   2.012   1_554  S
C1745      O1761   1.277       .  A
C1745      O1758   1.268       .  A
C1745      C1789   1.450       .  S
O1746      C1759   1.277       .  A
O1746     Cd1753   2.084       .  S
O1747      C1765   1.275       .  A
O1747     Cd1756   2.079       .  S
O1748      C1762   1.279       .  A
O1748     Cd1752   2.097       .  S
O1749      C1760   1.280       .  A
O1749     Cd1752   2.099       .  S
Zn1750     O1761   2.034       .  S
Zn1750     O1763   1.997       .  S
Zn1750     O1755   1.929   1_556  S
O1751      C1762   1.272       .  A
O1751     Cd1756   2.052   1_554  S
Cd1752     O1754   2.096       .  S
Cd1752     O1755   2.000       .  S
Cd1753     O1757   2.057   1_556  S
Cd1753     O1766   2.064       .  S
Cd1753     O1755   1.978   1_556  S
O1754      C1764   1.279       .  A
O1755     Cd1756   1.980   1_554  S
Cd1756     O1758   2.023       .  S
O1757      C1764   1.275       .  A
C1759      O1763   1.272       .  A
C1760      C1771   1.472       .  S
C1762      C1783   1.468       .  S
C1764      C1793   1.469       .  S
C1765      O1766   1.273       .  A
C1765      C1777   1.461       .  S
C1767      C2053   1.464       .  S
C1767      N1768   1.358       .  A
C1767      N1772   1.358       .  A
N1768      C1769   1.354       .  A
C1769      N1770   1.362       .  A
N1770      C1771   1.363       .  A
C1771      N1772   1.355       .  A
C1773      C2158   1.475       .  S
C1773      N1774   1.366       .  A
N1774      C1775   1.360       .  A
C1775      N1776   1.356       .  A
C1777      N1778   1.355       .  A
C1779      C2030   1.462       .  S
C1779      N1780   1.358       .  A
N1780      C1781   1.354       .  A
C1781      N1782   1.362       .  A
C1783      N1784   1.354       .  A
C1785      C2126   1.468       .  S
C1785      N1790   1.359       .  A
N1786      C1787   1.350       .  A
N1788      C1789   1.354       .  A
C1789      N1790   1.351       .  A
C1791      C1998   1.472       .  S
C1791      N1792   1.361   1_545  A
N1792      C1793   1.356       .  A
C1793      N1794   1.358   1_565  A
C1795      N1796   1.352       .  A
O1797      C1813   1.274       .  A
O1797     Zn1803   2.003       .  S
C1798      O1814   1.278       .  A
C1798      O1811   1.274       .  A
C1798      C1851   1.458       .  S
O1799      C1812   1.274       .  A
O1799     Cd1806   2.067       .  S
O1800      C1818   1.276       .  A
O1800     Cd1809   2.080       .  S
O1801      C1815   1.278       .  A
O1801     Cd1805   2.091       .  S
O1802      C1813   1.278       .  A
O1802     Cd1805   2.087       .  S
Zn1803     O1814   2.033       .  S
Zn1803     O1816   2.011       .  S
Zn1803     O1808   1.911       .  S
O1804      C1815   1.271       .  A
O1804     Cd1809   2.049       .  S
Cd1805     O1807   2.078       .  S
Cd1805     O1808   1.991       .  S
Cd1806     O1810   2.037       .  S
Cd1806     O1819   2.034       .  S
Cd1806     O1808   1.969       .  S
O1807      C1817   1.277       .  A
O1808     Cd1809   1.971       .  S
Cd1809     O1811   2.053       .  S
O1810      C1817   1.271       .  A
C1812      O1816   1.273       .  A
C1812      C1822   1.457       .  S
C1813      C1869   1.464       .  S
C1815      C1875   1.465       .  S
C1817      C1865   1.454       .  S
C1818      O1819   1.269       .  A
C1818      C1857   1.450       .  S
C1820      C2190   1.477       .  S
C1820      N1821   1.357       .  A
C1820      N1825   1.366       .  A
N1821      C1822   1.351       .  A
C1822      N1823   1.353       .  A
N1823      C1824   1.358       .  A
C1824      C1827   1.472       .  S
C1824      N1825   1.362       .  A
O1826      C1842   1.279       .  A
O1826     Zn1832   2.056       .  S
C1827      O1843   1.275       .  A
C1827      O1840   1.277       .  A
O1828      C1841   1.277       .  A
O1828     Cd1835   2.081       .  S
O1829      C1847   1.277       .  A
O1829     Cd1838   2.079       .  S
O1830      C1844   1.272       .  A
O1830     Cd1834   2.048       .  S
O1831      C1842   1.269       .  A
O1831     Cd1834   2.028       .  S
Zn1832     O1843   2.013       .  S
Zn1832     O1845   2.022       .  S
Zn1832     O1837   1.929       .  S
O1833      C1844   1.278       .  A
O1833     Cd1838   2.091       .  S
Cd1834     O1836   2.078       .  S
Cd1834     O1837   1.981       .  S
Cd1835     O1839   2.061       .  S
Cd1835     O1848   2.058       .  S
Cd1835     O1837   1.985       .  S
O1836      C1846   1.274       .  A
O1837     Cd1838   2.004       .  S
Cd1838     O1840   2.095       .  S
O1839      C1846   1.272       .  A
C1841      O1845   1.275       .  A
C1841      C1871   1.465       .  S
C1842      C1877   1.457       .  S
C1844      C1853   1.462       .  S
C1846      C1863   1.462       .  S
C1847      O1848   1.275       .  A
C1847      C1859   1.464       .  S
C1849      C2245   1.467       .  S
C1849      N1850   1.359       .  A
N1850      C1851   1.353       .  A
C1851      N1852   1.356       .  A
C1853      N1854   1.353       .  A
C1855      C2222   1.476       .  S
C1855      N1860   1.360       .  A
N1856      C1857   1.345       .  A
N1858      C1859   1.359       .  A
C1859      N1860   1.358       .  A
C1861      C1957   1.456       .  S
C1861      N1866   1.355   1_455  A
N1862      C1863   1.356       .  A
N1864      C1865   1.357   1_455  A
C1865      N1866   1.350       .  A
C1867      C1925   1.470       .  S
C1867      N1868   1.360       .  A
C1867      N1872   1.360       .  A
N1868      C1869   1.356       .  A
C1869      N1870   1.359       .  A
N1870      C1871   1.356       .  A
C1871      N1872   1.355       .  A
C1873      C1893   1.467       .  S
C1873      N1878   1.355       .  A
N1874      C1875   1.354       .  A
N1876      C1877   1.357       .  A
C1877      N1878   1.349       .  A
C1879      H1880   1.107       .  S
C1879      C1885   1.547       .  S
C1879      C1884   1.537       .  S
C1881      H1882   1.112   1_565  S
C1883      C1886   1.374       .  D
C1883      C2062   1.486       .  S
C1884      C1887   1.374       .  D
C1884      C1989   1.493       .  S
C1885      C1888   1.372       .  D
C1885      C2021   1.492       .  S
C1886      C1934   1.487       .  S
C1887      C1902   1.487       .  S
C1888      C1966   1.486       .  S
C1889      C1894   1.398       .  A
C1889      H1899   1.084       .  S
C1890      C1895   1.469       .  S
C1890      C1891   1.411       .  A
C1891      C1892   1.405       .  A
C1891      C1896   1.516       .  S
C1892      H1897   1.083       .  S
C1893      C1894   1.417       .  A
C1894      C1898   1.521       .  S
C1895      C1900   1.411       .  A
C1896      F1912   1.382       .  S
C1896      F1913   1.383       .  S
C1896      F1914   1.384       .  S
C1898      F1909   1.384       .  S
C1898      F1910   1.383       .  S
C1898      F1911   1.383       .  S
C1900      C1901   1.393       .  A
C1900      C1905   1.518       .  S
C1901      H1906   1.081       .  S
C1902      C1903   1.417       .  A
C1903      C1904   1.408       .  A
C1903      C1907   1.513       .  S
C1904      H1908   1.083       .  S
C1905      F1918   1.383       .  S
C1905      F1919   1.383       .  S
C1905      F1920   1.382       .  S
C1907      F1915   1.379       .  S
C1907      F1916   1.385       .  S
C1907      F1917   1.375       .  S
C1921      C1922   1.400       .  A
C1921      C1926   1.401       .  A
C1921      H1931   1.084       .  S
C1922      C1927   1.475       .  S
C1922      C1923   1.413       .  A
C1923      C1924   1.407       .  A
C1923      C1928   1.519       .  S
C1924      C1925   1.404       .  A
C1924      H1929   1.083       .  S
C1925      C1926   1.416       .  A
C1926      C1930   1.520       .  S
C1927      C1932   1.411       .  A
C1927      C1936   1.401       .  A
C1928      F1944   1.382       .  S
C1928      F1945   1.382       .  S
C1928      F1946   1.384       .  S
C1930      F1941   1.384       .  S
C1930      F1942   1.385       .  S
C1930      F1943   1.382       .  S
C1932      C1933   1.397       .  A
C1932      C1937   1.523       .  S
C1933      C1934   1.407       .  A
C1933      H1938   1.081       .  S
C1934      C1935   1.423       .  A
C1935      C1936   1.407       .  A
C1935      C1939   1.516       .  S
C1936      H1940   1.084       .  S
C1937      F1950   1.385       .  S
C1937      F1951   1.382       .  S
C1937      F1952   1.382       .  S
C1939      F1947   1.376       .  S
C1939      F1948   1.382       .  S
C1939      F1949   1.385       .  S
C1953      C1954   1.400       .  A
C1953      C1958   1.397       .  A
C1953      H1963   1.084       .  S
C1954      C1959   1.465   1_455  S
C1955      C1956   1.403       .  A
C1955      C1960   1.519       .  S
C1956      H1961   1.083       .  S
C1957      C1958   1.412       .  A
C1958      C1962   1.519       .  S
C1959      C1964   1.411       .  A
C1960      F1976   1.383       .  S
C1960      F1978   1.384       .  S
C1962      F1973   1.385       .  S
C1962      F1975   1.383       .  S
C1964      C1965   1.399       .  A
C1964      C1969   1.521       .  S
C1965      C1966   1.406       .  A
C1965      H1970   1.082       .  S
C1967      C1968   1.401       .  A
C1967      C1971   1.515       .  S
C1968      H1972   1.085       .  S
C1969      F1982   1.385       .  S
C1969      F1983   1.382       .  S
C1969      F1984   1.382       .  S
C1971      F1979   1.385       .  S
C1971      F1981   1.383       .  S
C1985      C1990   1.402       .  A
C1985      H1995   1.084       .  S
C1986      C1991   1.470       .  S
C1986      C1987   1.411       .  A
C1987      C1988   1.405       .  A
C1987      C1992   1.516       .  S
C1988      H1993   1.083       .  S
C1989      C1990   1.424       .  A
C1990      C1994   1.519       .  S
C1991      C1996   1.417       .  A
C1992      F2008   1.382       .  S
C1992      F2009   1.383       .  S
C1992      F2010   1.384       .  S
C1994      F2005   1.380       .  S
C1994      F2006   1.385       .  S
C1994      F2007   1.376       .  S
C1996      C1997   1.396       .  A
C1996      C2001   1.521       .  S
C1997      H2002   1.085       .  S
C1998      C1999   1.415   1_545  A
C1999      C2000   1.409       .  A
C1999      C2003   1.517       .  S
C2000      H2004   1.083       .  S
C2001      F2014   1.383       .  S
C2001      F2015   1.383       .  S
C2001      F2016   1.380       .  S
C2003      F2011   1.382       .  S
C2003      F2012   1.383       .  S
C2003      F2013   1.385       .  S
C2017      C2018   1.396   1_655  A
C2017      C2022   1.404       .  A
C2017      H2027   1.085       .  S
C2018      C2023   1.466       .  S
C2019      C2020   1.396       .  A
C2019      C2024   1.519       .  S
C2020      H2025   1.085       .  S
C2021      C2022   1.429       .  A
C2022      C2026   1.517       .  S
C2023      C2028   1.410       .  A
C2024      F2040   1.383       .  S
C2024      F2041   1.381       .  S
C2024      F2042   1.384       .  S
C2026      F2037   1.383       .  S
C2026      F2038   1.385       .  S
C2026      F2039   1.369       .  S
C2028      C2029   1.406       .  A
C2028      C2033   1.516       .  S
C2029      C2030   1.406   1_455  A
C2029      H2034   1.083       .  S
C2031      C2032   1.400       .  A
C2031      C2035   1.522       .  S
C2032      H2036   1.084       .  S
C2033      F2046   1.384       .  S
C2033      F2047   1.382       .  S
C2033      F2048   1.383       .  S
C2035      F2043   1.385       .  S
C2035      F2044   1.383       .  S
C2035      F2045   1.383       .  S
C2049      C2050   1.401       .  A
C2049      C2054   1.398       .  A
C2049      H2059   1.084       .  S
C2050      C2055   1.473       .  S
C2050      C2051   1.413       .  A
C2051      C2052   1.407       .  A
C2051      C2056   1.518       .  S
C2052      C2053   1.403       .  A
C2052      H2057   1.083       .  S
C2053      C2054   1.414       .  A
C2054      C2058   1.521       .  S
C2055      C2060   1.409       .  A
C2055      C2064   1.401       .  A
C2056      F2072   1.382       .  S
C2056      F2073   1.381       .  S
C2056      F2074   1.384       .  S
C2058      F2069   1.385       .  S
C2058      F2070   1.382       .  S
C2058      F2071   1.383       .  S
C2060      C2061   1.395       .  A
C2060      C2065   1.519       .  S
C2061      C2062   1.403       .  A
C2061      H2066   1.080       .  S
C2062      C2063   1.423       .  A
C2063      C2064   1.408       .  A
C2063      C2067   1.517       .  S
C2064      H2068   1.083       .  S
C2065      F2078   1.384       .  S
C2065      F2079   1.381       .  S
C2065      F2080   1.380       .  S
C2067      F2075   1.376       .  S
C2067      F2076   1.385       .  S
C2067      F2077   1.374       .  S
C2081      C2082   1.403       .  A
C2081      C2086   1.402       .  A
C2081      H2091   1.081       .  S
C2082      C2087   1.473       .  S
C2082      C2083   1.413       .  A
C2083      C2084   1.403       .  A
C2083      C2088   1.520       .  S
C2084      C2085   1.403       .  A
C2084      H2089   1.084       .  S
C2085      C2086   1.411       .  A
C2086      C2090   1.518       .  S
C2087      C2092   1.414       .  A
C2087      C2096   1.396       .  A
C2088      F2104   1.382       .  S
C2088      F2105   1.381       .  S
C2088      F2106   1.385       .  S
C2090      F2101   1.382       .  S
C2090      F2102   1.385       .  S
C2090      F2103   1.384       .  S
C2092      C2093   1.407       .  A
C2092      C2097   1.520       .  S
C2093      C2094   1.404       .  A
C2093      H2098   1.080       .  S
C2094      C2095   1.416       .  A
C2095      C2096   1.397       .  A
C2095      C2099   1.511       .  S
C2096      H2100   1.085       .  S
C2097      F2110   1.384       .  S
C2097      F2111   1.381       .  S
C2097      F2112   1.381       .  S
C2099      F2107   1.382   1_655  S
C2099      F2108   1.377   1_655  S
C2099      F2109   1.384       .  S
C2113      C2114   1.394       .  A
C2113      C2118   1.403       .  A
C2113      H2123   1.085       .  S
C2114      C2119   1.466       .  S
C2115      C2116   1.393       .  A
C2115      C2120   1.521       .  S
C2116      H2121   1.082       .  S
C2117      C2118   1.432       .  A
C2118      C2122   1.517       .  S
C2119      C2124   1.413       .  A
C2120      F2136   1.383       .  S
C2120      F2137   1.383       .  S
C2120      F2138   1.384       .  S
C2122      F2133   1.385       .  S
C2122      F2134   1.383       .  S
C2122      F2135   1.366       .  S
C2124      C2125   1.396       .  A
C2124      C2129   1.520       .  S
C2125      C2126   1.401       .  A
C2125      H2130   1.083       .  S
C2127      C2128   1.402       .  A
C2127      C2131   1.521       .  S
C2128      H2132   1.083       .  S
C2129      F2142   1.385       .  S
C2129      F2143   1.382       .  S
C2129      F2144   1.381       .  S
C2131      F2139   1.385       .  S
C2131      F2140   1.383       .  S
C2131      F2141   1.383       .  S
C2145      C2150   1.396       .  A
C2145      H2155   1.085       .  S
C2146      C2151   1.472       .  S
C2146      C2147   1.413       .  A
C2147      C2148   1.412       .  A
C2147      C2152   1.513       .  S
C2148      C2149   1.408       .  A
C2148      H2153   1.081       .  S
C2150      C2154   1.510       .  S
C2151      C2156   1.415       .  A
C2152      F2168   1.382       .  S
C2152      F2169   1.383       .  S
C2152      F2170   1.384       .  S
C2154      F2165   1.369       .  S
C2156      C2157   1.402       .  A
C2156      C2161   1.518       .  S
C2157      C2158   1.403       .  A
C2157      H2162   1.085       .  S
C2159      C2160   1.405       .  A
C2159      C2163   1.520       .  S
C2160      H2164   1.084       .  S
C2161      F2174   1.383       .  S
C2161      F2175   1.383       .  S
C2161      F2176   1.382       .  S
C2163      F2171   1.384       .  S
C2163      F2172   1.381       .  S
C2163      F2173   1.385       .  S
C2177      C2178   1.395       .  A
C2177      C2182   1.398       .  A
C2177      H2187   1.084       .  S
C2178      C2183   1.481       .  S
C2178      C2179   1.414       .  A
C2179      C2180   1.410       .  A
C2179      C2184   1.516       .  S
C2180      C2181   1.406       .  A
C2180      H2185   1.079       .  S
C2181      C2182   1.422       .  A
C2182      C2186   1.510       .  S
C2183      C2188   1.418       .  A
C2183      C2192   1.401       .  A
C2184      F2200   1.381       .  S
C2184      F2201   1.383       .  S
C2184      F2202   1.385       .  S
C2186      F2197   1.385       .  S
C2186      F2198   1.376   1_565  S
C2188      C2189   1.405       .  A
C2188      C2193   1.517       .  S
C2189      C2190   1.402       .  A
C2189      H2194   1.085       .  S
C2190      C2191   1.420       .  A
C2191      C2192   1.404       .  A
C2191      C2195   1.522       .  S
C2192      H2196   1.080       .  S
C2193      F2206   1.383       .  S
C2193      F2207   1.383       .  S
C2193      F2208   1.383       .  S
C2195      F2203   1.383       .  S
C2195      F2204   1.383       .  S
C2195      F2205   1.385       .  S
C2209      C2210   1.399       .  A
C2209      C2214   1.405       .  A
C2209      H2219   1.085       .  S
C2210      C2211   1.413       .  A
C2211      C2212   1.394       .  A
C2211      C2216   1.523       .  S
C2212      C2213   1.405       .  A
C2212      H2217   1.080       .  S
C2213      C2214   1.424       .  A
C2214      C2218   1.516       .  S
C2215      C2220   1.414   1_455  A
C2216      F2232   1.382       .  S
C2218      F2230   1.384       .  S
C2218      F2231   1.383       .  S
C2220      C2221   1.391       .  A
C2220      C2225   1.525       .  S
C2221      H2226   1.082       .  S
C2222      C2223   1.419       .  A
C2223      C2224   1.407       .  A
C2223      C2227   1.518       .  S
C2224      H2228   1.083       .  S
C2225      F2238   1.385       .  S
C2225      F2239   1.381       .  S
C2225      F2240   1.383       .  S
C2227      F2235   1.385       .  S
C2227      F2236   1.384       .  S
C2227      F2237   1.382       .  S
C2241      C2242   1.399       .  A
C2241      C2246   1.403       .  A
C2241      H2251   1.083       .  S
C2243      C2244   1.401       .  A
C2243      C2248   1.520       .  S
C2244      H2249   1.083       .  S
C2245      C2246   1.416       .  A
C2246      C2250   1.518       .  S
C2247      C2252   1.410       .  A
C2248      F2265   1.383       .  S
C2248      F2266   1.385       .  S
C2250      F2261   1.382       .  S
C2250      F2262   1.385       .  S
C2250      F2263   1.384       .  S
C2252      C2253   1.399       .  A
C2252      C2257   1.519       .  S
C2253      H2258   1.081       .  S
C2254      C2255   1.423       .  A
C2255      C2256   1.403       .  A
C2255      C2259   1.514       .  S
C2256      H2260   1.083       .  S
C2257      F2270   1.383       .  S
C2257      F2271   1.381       .  S
C2257      F2272   1.383       .  S
C2259      F2267   1.377       .  S
C2259      F2268   1.374       .  S
C2259      F2269   1.385       .  S
