geometry optimzed in LAMMPS
_audit_creation_date              2020-11-30 
_audit_creation_method            'lammps2cif' 
_symmetry_space_group_name_H-M    'P1' 
_symmetry_Int_Tables_number       1 
_symmetry_cell_setting            triclinic 
loop_ 
_symmetry_equiv_pos_as_xyz 
  x,y,z 
_cell_length_a                    30.71132071 
_cell_length_b                    30.712706193634308 
_cell_length_c                    48.260244849853095 
_cell_angle_alpha                 89.98693307167592 
_cell_angle_beta                  90.00585947881973 
_cell_angle_gamma                 120.1272730256989 
loop_ 
_atom_site_label 
_atom_site_type_symbol 
_atom_site_fract_x 
_atom_site_fract_y 
_atom_site_fract_z 
_atom_site_charge 
N1          N  0.57712419  0.79191430  0.10371902    -0.36000
N2          N  0.57163761  0.72127347  0.14547840    -0.56600
N3          N  0.54445717  0.77245688  0.18722502    -0.36000
N4          N  0.55303113  0.84487027  0.14547797    -0.56600
C5          C  0.60213359  0.77194887  0.09097992     0.27600
C6          C  0.59096943  0.83615007  0.09103267     0.27600
C7          C  0.54779198  0.73832521  0.20363535     0.27600
C8          C  0.54116735  0.80658020  0.20377235     0.27600
C9          C  0.57912081  0.70015684  0.12262014     0.36200
C10         C  0.56151876  0.68856405  0.16664366     0.36200
C11         C  0.54577300  0.86382548  0.12174536     0.36200
C12         C  0.52910661  0.85494398  0.16581314     0.36200
C13         C  0.63231964  0.80383322  0.07007746    -0.21300
C14         C  0.62534528  0.84456801  0.07015309    -0.21300
C15         C  0.54522216  0.75011313  0.23110459    -0.21300
C16         C  0.54131181  0.79299296  0.23121100    -0.21300
C17         C  0.57415004  0.65411677  0.12929811    -0.22400
C18         C  0.56527135  0.64779709  0.15711390    -0.22400
C19         C  0.51690469  0.88573860  0.12658187    -0.22400
C20         C  0.50561674  0.87958621  0.15424782    -0.22400
C21         C  0.59572030  0.72413993  0.09652470    -0.17700
C22         C  0.57008052  0.86681867  0.09656253    -0.17700
C23         C  0.53296738  0.84625665  0.19460655    -0.17700
C24         C  0.55006968  0.69527699  0.19447167    -0.17700
H25         H  0.65650928  0.79811720  0.05605700     0.15200
H26         H  0.64303112  0.87634420  0.05616057     0.15200
H27         H  0.54535279  0.72962555  0.24930821     0.15200
H28         H  0.53645305  0.81020677  0.24956824     0.15200
H29         H  0.57854482  0.62837141  0.11590149     0.13500
H30         H  0.56362618  0.61689326  0.16860467     0.13500
H31         H  0.50522026  0.90423840  0.11169428     0.13500
H32         H  0.48122032  0.89104530  0.16368854     0.13500
H33         H  0.54776874  0.77364855  0.11784435     0.26700
H34         H  0.53961821  0.76953579  0.16594826     0.26700
N35         N  0.57733607  0.78941998  0.44785765    -0.36000
N36         N  0.55993074  0.84833143  0.40685609    -0.56600
N37         N  0.55688541  0.78067581  0.36317829    -0.36000
N38         N  0.56697842  0.71763906  0.40546229    -0.56600
C39         C  0.59372798  0.83329515  0.46149633     0.27600
C40         C  0.59993388  0.76637866  0.46007995     0.27600
C41         C  0.54674218  0.81168618  0.34770560     0.27600
C42         C  0.54817403  0.74051766  0.34717961     0.27600
C43         C  0.56294895  0.87518493  0.42978319     0.36200
C44         C  0.55443511  0.87281223  0.38501213     0.36200
C45         C  0.57309214  0.69471997  0.42790830     0.36200
C46         C  0.55912928  0.68723045  0.38348972     0.36200
C47         C  0.62719574  0.83835449  0.48222946    -0.21300
C48         C  0.63148504  0.79628795  0.48116765    -0.21300
C49         C  0.53335061  0.79182335  0.32121179    -0.21300
C50         C  0.53415469  0.74731860  0.32089010    -0.21300
C51         C  0.55820183  0.91616461  0.42260418    -0.22400
C52         C  0.55571303  0.91625544  0.39443036    -0.22400
C53         C  0.56806869  0.64904118  0.42040717    -0.22400
C54         C  0.56135418  0.64518204  0.39237281    -0.22400
C55         C  0.57884255  0.86886181  0.45622831    -0.17700
C56         C  0.59050002  0.71761853  0.45408435    -0.17700
C57         C  0.54973358  0.69651976  0.35570995    -0.17700
C58         C  0.54648825  0.85595174  0.35692151    -0.17700
H59         H  0.64689099  0.86938445  0.49652418     0.15200
H60         H  0.65494222  0.78846452  0.49461473     0.15200
H61         H  0.52234477  0.80683184  0.30402596     0.15200
H62         H  0.52376887  0.72202202  0.30339092     0.15200
H63         H  0.56042682  0.94551863  0.43593336     0.13500
H64         H  0.55677210  0.94663916  0.38267172     0.13500
H65         H  0.57209768  0.62251692  0.43335734     0.13500
H66         H  0.56042717  0.61509251  0.38040389     0.13500
H67         H  0.54845235  0.77386104  0.43325941     0.26700
H68         H  0.56995143  0.78706999  0.38337193     0.26700
N69         N  0.78682590  0.20660378  0.44756288    -0.36000
N70         N  0.84969087  0.27914602  0.40562772    -0.56600
N71         N  0.77802795  0.21756517  0.36262994    -0.36000
N72         N  0.71259079  0.14799516  0.40589103    -0.56600
C73         C  0.83162942  0.23080178  0.46067162     0.27600
C74         C  0.75925953  0.16264816  0.46114933     0.27600
C75         C  0.80889407  0.25905011  0.34733247     0.27600
C76         C  0.73609653  0.18838686  0.34729295     0.27600
C77         C  0.87797987  0.30208404  0.42830867     0.36200
C78         C  0.87380845  0.30922449  0.38374833     0.36200
C79         C  0.68818510  0.11989667  0.42843595     0.36200
C80         C  0.68312805  0.12449850  0.38368789     0.36200
C81         C  0.83277531  0.20161092  0.48229594    -0.21300
C82         C  0.78694132  0.15864861  0.48268326    -0.21300
C83         C  0.78705759  0.25497183  0.32157737    -0.21300
C84         C  0.74147768  0.21071003  0.32154787    -0.21300
C85         C  0.91977638  0.34724620  0.42090689    -0.22400
C86         C  0.91852762  0.35049160  0.39277122    -0.22400
C87         C  0.64282570  0.07885359  0.42059795    -0.22400
C88         C  0.64081955  0.08034347  0.39240526    -0.22400
C89         C  0.87067798  0.27979470  0.45482877    -0.17700
C90         C  0.70917167  0.12634271  0.45529221    -0.17700
C91         C  0.69196609  0.14340168  0.35599780    -0.17700
C92         C  0.85493315  0.30185076  0.35613410    -0.17700
H93         H  0.86340550  0.21043114  0.49648826     0.15200
H94         H  0.77542729  0.12783722  0.49714757     0.15200
H95         H  0.80165006  0.28184793  0.30473225     0.15200
H96         H  0.71464581  0.19736959  0.30467179     0.15200
H97         H  0.94987916  0.37393885  0.43406166     0.13500
H98         H  0.94831123  0.37999203  0.38070106     0.13500
H99         H  0.61524723  0.04890534  0.43350797     0.13500
H100        H  0.61146672  0.05094308  0.38008510     0.13500
H101        H  0.77390945  0.22159827  0.43243552     0.26700
H102        H  0.78569303  0.20880970  0.38209981     0.26700
N103        N  0.78290825  0.20798103  0.10392342    -0.36000
N104        N  0.84582277  0.28219009  0.14553712    -0.56600
N105        N  0.76928663  0.22889583  0.18709322    -0.36000
N106        N  0.70736947  0.15340281  0.14533659    -0.56600
C107        C  0.82835677  0.23007163  0.09163498     0.27600
C108        C  0.75463170  0.16310397  0.09138414     0.27600
C109        C  0.80729291  0.26267436  0.20354230     0.27600
C110        C  0.73303151  0.19292542  0.20349447     0.27600
C111        C  0.87035458  0.30488187  0.12183423     0.36200
C112        C  0.86482989  0.31753799  0.16575916     0.36200
C113        C  0.68127771  0.13360206  0.12159134     0.36200
C114        C  0.67311543  0.14427488  0.16538736     0.36200
C115        C  0.82932510  0.19875915  0.07120969    -0.21300
C116        C  0.78250091  0.15621946  0.07105993    -0.21300
C117        C  0.79401958  0.24864278  0.23096574    -0.21300
C118        C  0.74766830  0.20505130  0.23093643    -0.21300
C119        C  0.90490272  0.35478206  0.12671197    -0.22400
C120        C  0.90220889  0.36278815  0.15432455    -0.22400
C121        C  0.63038827  0.11208323  0.12616154    -0.22400
C122        C  0.62505725  0.11953908  0.15364287    -0.22400
C123        C  0.86678423  0.27972960  0.09672305    -0.17700
C124        C  0.70310875  0.13093744  0.09649464    -0.17700
C125        C  0.68527060  0.15288598  0.19420535    -0.17700
C126        C  0.85118053  0.30782119  0.19441654    -0.17700
H127        H  0.86013142  0.20629100  0.05742491     0.15200
H128        H  0.77009841  0.12447575  0.05718572     0.15200
H129        H  0.81409219  0.26851199  0.24938896     0.15200
H130        H  0.72635687  0.18672509  0.24934378     0.15200
H131        H  0.93089505  0.38230958  0.11209687     0.13500
H132        H  0.92663174  0.39860596  0.16382644     0.13500
H133        H  0.60033711  0.09342377  0.11118082     0.13500
H134        H  0.58920758  0.10882513  0.16293531     0.13500
H135        H  0.76994957  0.22538899  0.11747451     0.26700
H136        H  0.76564446  0.23297508  0.16603153     0.26700
N137        N  0.61965862  0.99888751  0.06950533    -0.36000
N138        N  0.58503214  0.92250683  0.02690101    -0.56600
N139        N  0.63235678  0.99787716  0.48548261    -0.36000
N140        N  0.66265477  0.07425328  0.02648257    -0.56600
C141        C  0.61209612  0.95785907  0.08393029     0.27600
C142        C  0.65388853  0.03981841  0.08377302     0.27600
C143        C  0.62923318  0.95699707  0.47327328     0.27600
C144        C  0.67006931  0.03830626  0.47283915     0.27600
C145        C  0.56121347  0.89335445  0.04893912     0.36200
C146        C  0.56657300  0.89316076  0.00422850     0.36200
C147        C  0.66897264  0.10406439  0.04838798     0.36200
C148        C  0.67269516  0.10288446  0.00353098     0.36200
C149        C  0.64131002  0.97292192  0.10775380    -0.21300
C150        C  0.66763893  0.02462456  0.10766280    -0.21300
C151        C  0.66602442  0.97143602  0.45305120    -0.21300
C152        C  0.69202749  0.02314045  0.45279410    -0.21300
C153        C  0.52605066  0.84523465  0.04022515    -0.22400
C154        C  0.52925817  0.84519002  0.01173739    -0.22400
C155        C  0.68185148  0.15192017  0.03933973    -0.22400
C156        C  0.68384224  0.15107380  0.01079805    -0.22400
C157        C  0.57890584  0.90720273  0.07630110    -0.17700
C158        C  0.67232000  0.09051113  0.07595177    -0.17700
C159        C  0.68094415  0.08795868  0.47726161    -0.17700
C160        C  0.59010916  0.90754465  0.47805251    -0.17700
H161        H  0.64396913  0.94921232  0.12345777     0.15200
H162        H  0.69440482  0.04825089  0.12326813     0.15200
H163        H  0.67231376  0.94723401  0.43935013     0.15200
H164        H  0.72245713  0.04683766  0.43887710     0.15200
H165        H  0.50306510  0.81283218  0.05313897     0.13500
H166        H  0.50925433  0.81285096  0.49832240     0.13500
H167        H  0.69163701  0.18463624  0.05202004     0.13500
H168        H  0.69563872  0.18313618  0.49719239     0.13500
H169        H  0.59976143  0.99897921  0.05202787     0.26700
H170        H  0.60573029  0.99811801  0.99882748     0.26700
N171        N  0.79446848  0.57670721  0.44744421    -0.36000
N172        N  0.84655919  0.55287818  0.40572868    -0.56600
N173        N  0.77179682  0.54230994  0.36433930    -0.40200
N174        N  0.72117138  0.56853365  0.40622650    -0.56600
C175        C  0.83914868  0.59151436  0.45981900     0.27600
C176        C  0.77395308  0.60111574  0.46018989     0.27600
C177        C  0.80638906  0.53992098  0.34778624     0.27600
C178        C  0.73823358  0.54696568  0.34805090     0.27600
C179        C  0.86522628  0.54503400  0.42942585     0.36200
C180        C  0.85330991  0.52613561  0.38569994     0.36200
C181        C  0.69961018  0.57261710  0.42985122     0.36200
C182        C  0.68611987  0.55439385  0.38592120     0.36200
C183        C  0.84749204  0.62623718  0.48046533    -0.21300
C184        C  0.80604845  0.63218591  0.48076834    -0.21300
C185        C  0.79377939  0.54187489  0.32039696    -0.21300
C186        C  0.75107031  0.54607481  0.32055869    -0.21300
C187        C  0.88368990  0.51306878  0.42483943    -0.22400
C188        C  0.87529757  0.50017910  0.39736234    -0.22400
C189        C  0.65079007  0.56112821  0.42470964    -0.22400
C190        C  0.64256745  0.55093254  0.39705679    -0.22400
C191        C  0.86958847  0.57030913  0.45445956    -0.17700
C192        C  0.72507883  0.59227607  0.45523917    -0.17700
C193        C  0.69426224  0.54762546  0.35741715    -0.17700
C194        C  0.84521463  0.53042952  0.35694782    -0.17700
H195        H  0.87944370  0.64444644  0.49430828     0.15200
H196        H  0.79981362  0.65590411  0.49487802     0.15200
H197        H  0.81113624  0.53748390  0.30197145     0.15200
H198        H  0.73099943  0.54630743  0.30224395     0.15200
H199        H  0.90082448  0.50000250  0.43981379     0.13500
H200        H  0.88345215  0.47330032  0.38790950     0.13500
H201        H  0.62420529  0.56190794  0.43912854     0.13500
H202        H  0.60806908  0.54327659  0.38713204     0.13500
H203        H  0.77601887  0.54670903  0.43371184     0.26700
H204        H  0.76816635  0.53549597  0.38549012     0.26700
N205        N  0.79227984  0.57828761  0.10416558    -0.36000
N206        N  0.85037411  0.56076426  0.14519609    -0.56600
N207        N  0.78177957  0.55714681  0.18894503    -0.36000
N208        N  0.72012402  0.56835875  0.14654105    -0.56600
C209        C  0.83605030  0.59456878  0.09042210     0.27600
C210        C  0.76888416  0.60020782  0.09167888     0.27600
C211        C  0.81181485  0.54555513  0.20427241     0.27600
C212        C  0.74112710  0.54780239  0.20469869     0.27600
C213        C  0.87778298  0.56414170  0.12238611     0.36200
C214        C  0.87418130  0.55470355  0.16721642     0.36200
C215        C  0.69761895  0.57496308  0.12407228     0.36200
C216        C  0.69048535  0.56258465  0.16858999     0.36200
C217        C  0.84073828  0.62744475  0.06942069    -0.21300
C218        C  0.79846730  0.63131352  0.07034408    -0.21300
C219        C  0.79073444  0.53038628  0.23044107    -0.21300
C220        C  0.74649221  0.53174306  0.23069311    -0.21300
C221        C  0.91847868  0.55913273  0.12982600    -0.22400
C222        C  0.91776121  0.55595700  0.15802203    -0.22400
C223        C  0.65306350  0.57250254  0.13174006    -0.22400
C224        C  0.64977545  0.56715606  0.15986011    -0.22400
C225        C  0.87171785  0.57989517  0.09576853    -0.17700
C226        C  0.72008576  0.59055229  0.09762428    -0.17700
C227        C  0.69818406  0.55115448  0.19618600    -0.17700
C228        C  0.85655680  0.54610315  0.19524457    -0.17700
H229        H  0.87160079  0.64695817  0.05499896     0.15200
H230        H  0.79030132  0.65421791  0.05664497     0.15200
H231        H  0.80492500  0.51814020  0.24746975     0.15200
H232        H  0.72058348  0.52084278  0.24794883     0.15200
H233        H  0.94803381  0.56135441  0.11666891     0.13500
H234        H  0.94768278  0.55643150  0.16995997     0.13500
H235        H  0.62699011  0.57726146  0.11880964     0.13500
H236        H  0.62083109  0.56797744  0.17214943     0.13500
H237        H  0.77682492  0.54971216  0.11894471     0.26700
H238        H  0.78954324  0.57209199  0.16912885     0.26700
N239        N  0.20878391  0.78527856  0.10396920    -0.36000
N240        N  0.28129137  0.84810538  0.14582636    -0.56600
N241        N  0.21904963  0.77650148  0.18878937    -0.36000
N242        N  0.15023610  0.71051497  0.14562597    -0.56600
C243        C  0.23216885  0.83036381  0.09109726     0.27600
C244        C  0.16488289  0.75731374  0.09043703     0.27600
C245        C  0.25955836  0.80831751  0.20447542     0.27600
C246        C  0.18821263  0.73585874  0.20463872     0.27600
C247        C  0.30405038  0.87634465  0.12309471     0.36200
C248        C  0.31199659  0.87151129  0.16759597     0.36200
C249        C  0.12311927  0.68570193  0.12291096     0.36200
C250        C  0.12630226  0.68115779  0.16779433     0.36200
C251        C  0.20247276  0.83122774  0.06967323    -0.21300
C252        C  0.16011372  0.78493794  0.06913133    -0.21300
C253        C  0.25317481  0.78837624  0.23096313    -0.21300
C254        C  0.20851344  0.74307713  0.23107481    -0.21300
C255        C  0.34983732  0.91743348  0.13026371    -0.22400
C256        C  0.35386383  0.91564733  0.15835581    -0.22400
C257        C  0.08237313  0.64000073  0.13055282    -0.22400
C258        C  0.08284369  0.63833456  0.15878554    -0.22400
C259        C  0.28101682  0.86980845  0.09686208    -0.17700
C260        C  0.12928717  0.70694759  0.09616044    -0.17700
C261        C  0.14377303  0.69111144  0.19581060    -0.17700
C262        C  0.30348344  0.85344336  0.19548136    -0.17700
H263        H  0.21059619  0.86192972  0.05567346     0.15200
H264        H  0.12915446  0.77311411  0.05473927     0.15200
H265        H  0.27877797  0.80400304  0.24831189     0.15200
H266        H  0.19365182  0.71758439  0.24851426     0.15200
H267        H  0.37627335  0.94759371  0.11702757     0.13500
H268        H  0.38384245  0.94525901  0.17024660     0.13500
H269        H  0.05289820  0.61227488  0.11746140     0.13500
H270        H  0.05289980  0.60909406  0.17088390     0.13500
H271        H  0.22424217  0.77245729  0.11888000     0.26700
H272        H  0.21229726  0.78249962  0.16854321     0.26700
N273        N  0.20845137  0.78322963  0.44769738    -0.36000
N274        N  0.28094762  0.84767393  0.40587775    -0.56600
N275        N  0.22992722  0.76919496  0.36472632    -0.36000
N276        N  0.15632171  0.70603758  0.40673099    -0.56600
C277        C  0.22856750  0.82871521  0.45983203     0.27600
C278        C  0.16416641  0.75319588  0.46043261     0.27600
C279        C  0.26372415  0.80681936  0.34815177     0.27600
C280        C  0.19483262  0.73194714  0.34841541     0.27600
C281        C  0.30273479  0.87382750  0.42935122     0.36200
C282        C  0.31619909  0.86749239  0.38561695     0.36200
C283        C  0.13831112  0.67990011  0.43059238     0.36200
C284        C  0.14802478  0.67209107  0.38668264     0.36200
C285        C  0.19657892  0.82792695  0.48038183    -0.21300
C286        C  0.15564497  0.78000276  0.48073136    -0.21300
C287        C  0.25080982  0.79225183  0.32075430    -0.21300
C288        C  0.20758119  0.74556259  0.32092313    -0.21300
C289        C  0.35188940  0.91042053  0.42419914    -0.22400
C290        C  0.36021094  0.90736724  0.39667328    -0.22400
C291        C  0.11889323  0.62920364  0.42609864    -0.22400
C292        C  0.12571157  0.62416107  0.39845127    -0.22400
C293        C  0.27737308  0.86880194  0.45463926    -0.17700
C294        C  0.13408255  0.70125826  0.45547248    -0.17700
C295        C  0.15514852  0.68419947  0.35789277    -0.17700
C296        C  0.30773870  0.85185294  0.35721011    -0.17700
H297        H  0.20270175  0.85833294  0.49413171     0.15200
H298        H  0.12394457  0.76623493  0.49475251     0.15200
H299        H  0.27102860  0.81201202  0.30232964     0.15200
H300        H  0.18982480  0.72329799  0.30268426     0.15200
H301        H  0.37874542  0.93783765  0.43853921     0.13500
H302        H  0.39524877  0.93330613  0.38686262     0.13500
H303        H  0.10160306  0.59911420  0.44116739     0.13500
H304        H  0.11612921  0.58878369  0.38887953     0.13500
H305        H  0.22703776  0.77156904  0.43417564     0.26700
H306        H  0.23350213  0.76679902  0.38593894     0.26700
N307        N  0.42133010  0.21337337  0.10380199    -0.36000
N308        N  0.43122998  0.15029158  0.14503622    -0.56600
N309        N  0.45668882  0.22824127  0.18692711    -0.36000
N310        N  0.44440343  0.29029456  0.14550352    -0.56600
C311        C  0.39773221  0.16842341  0.09094655     0.27600
C312        C  0.40600651  0.24257254  0.09124603     0.27600
C313        C  0.45350302  0.19068599  0.20326938     0.27600
C314        C  0.45863487  0.26509060  0.20351426     0.27600
C315        C  0.42457798  0.12221662  0.12203387     0.36200
C316        C  0.44259344  0.12839661  0.16602266     0.36200
C317        C  0.45069265  0.31604772  0.12166739     0.36200
C318        C  0.46895487  0.32486949  0.16555292     0.36200
C319        C  0.36674515  0.16881056  0.07013947    -0.21300
C320        C  0.37187234  0.21580222  0.07038517    -0.21300
C321        C  0.45476737  0.20446897  0.23076195    -0.21300
C322        C  0.45776982  0.25092351  0.23093017    -0.21300
C323        C  0.43148422  0.08224666  0.12835790    -0.22400
C324        C  0.44070613  0.08484967  0.15613527    -0.22400
C325        C  0.47942259  0.36704693  0.12618103    -0.22400
C326        C  0.49171857  0.37284694  0.15372316    -0.22400
C327        C  0.40651777  0.12854081  0.09620107    -0.17700
C328        C  0.42603253  0.29405267  0.09662453    -0.17700
C329        C  0.46627296  0.31291302  0.19437848    -0.17700
C330        C  0.45258098  0.14590200  0.19405785    -0.17700
H331        H  0.34344078  0.13862754  0.05599358     0.15200
H332        H  0.35343595  0.22902027  0.05640226     0.15200
H333        H  0.45440768  0.18373070  0.24896517     0.15200
H334        H  0.46141494  0.27247268  0.24934344     0.15200
H335        H  0.42762633  0.05247568  0.11479536     0.13500
H336        H  0.44318307  0.05580440  0.16731937     0.13500
H337        H  0.49047994  0.39693923  0.11113664     0.13500
H338        H  0.51627333  0.40902468  0.16289852     0.13500
H339        H  0.45108991  0.22554588  0.11773480     0.26700
H340        H  0.46250060  0.23081626  0.16570346     0.26700
N341        N  0.42439999  0.21401182  0.44739703    -0.36000
N342        N  0.43563993  0.15262360  0.40506113    -0.56600
N343        N  0.44425406  0.22426392  0.36232050    -0.36000
N344        N  0.43924746  0.28859283  0.40591330    -0.56600
C345        C  0.40328732  0.16868374  0.46004911     0.27600
C346        C  0.40758584  0.24105405  0.46109534     0.27600
C347        C  0.45467426  0.19363364  0.34669870     0.27600
C348        C  0.45565036  0.26595485  0.34702437     0.27600
C349        C  0.43072192  0.12445524  0.42775418     0.36200
C350        C  0.44352824  0.12977839  0.38321748     0.36200
C351        C  0.43514044  0.31242272  0.42858863     0.36200
C352        C  0.44380128  0.31767936  0.38376220     0.36200
C353        C  0.37229888  0.16680210  0.48149189    -0.21300
C354        C  0.37533107  0.21260565  0.48229105    -0.21300
C355        C  0.47120894  0.21556907  0.32081464    -0.21300
C356        C  0.47184127  0.26079829  0.32102764    -0.21300
C357        C  0.43676487  0.08432423  0.42053178    -0.22400
C358        C  0.44260797  0.08631703  0.39246999    -0.22400
C359        C  0.43802534  0.35714521  0.42085573    -0.22400
C360        C  0.44055154  0.35902508  0.39265304    -0.22400
C361        C  0.41326821  0.12974608  0.45397231    -0.17700
C362        C  0.42075852  0.29105111  0.45541939    -0.17700
C363        C  0.45396797  0.30957659  0.35595337    -0.17700
C364        C  0.45246847  0.14784473  0.35529467    -0.17700
H365        H  0.34979807  0.13565450  0.49527181     0.15200
H366        H  0.35540438  0.22342983  0.49667742     0.15200
H367        H  0.48331637  0.20140449  0.30371792     0.15200
H368        H  0.48428258  0.28751617  0.30410577     0.15200
H369        H  0.43386747  0.05450301  0.43373048     0.13500
H370        H  0.44397617  0.05710316  0.38082019     0.13500
H371        H  0.43509734  0.38423358  0.43385318     0.13500
H372        H  0.43897739  0.38766059  0.38045695     0.13500
H373        H  0.45254704  0.22746794  0.43236596     0.26700
H374        H  0.42869622  0.21649991  0.38200673     0.26700
N375        N  0.37461327  0.37451695  0.06964504    -0.36000
N376        N  0.41098808  0.33481889  0.02668982    -0.56600
N377        N  0.36581002  0.36501979  0.48536512    -0.36000
N378        N  0.33268450  0.40808698  0.02698473    -0.56600
C379        C  0.38291277  0.34165103  0.08407993     0.27600
C380        C  0.34083594  0.38127133  0.08421916     0.27600
C381        C  0.36987114  0.32827507  0.47254654     0.27600
C382        C  0.32829129  0.36780849  0.47266257     0.27600
C383        C  0.43423818  0.32902596  0.04886365     0.36200
C384        C  0.43107525  0.32598483  0.00397182     0.36200
C385        C  0.32520037  0.43037619  0.04906574     0.36200
C386        C  0.32350501  0.42767191  0.00419487     0.36200
C387        C  0.35466872  0.32797374  0.10827506    -0.21300
C388        C  0.32817513  0.35305798  0.10837966    -0.21300
C389        C  0.33375245  0.30654292  0.45192556    -0.21300
C390        C  0.30736763  0.33172730  0.45197186    -0.21300
C391        C  0.47034796  0.31747296  0.04023702    -0.22400
C392        C  0.46859706  0.31589899  0.01168190    -0.22400
C393        C  0.31206907  0.46526995  0.04033918    -0.22400
C394        C  0.31141222  0.46387906  0.01179094    -0.22400
C395        C  0.41632487  0.32475817  0.07626180    -0.17700
C396        C  0.32212663  0.41321000  0.07651412    -0.17700
C397        C  0.31679231  0.40594874  0.47758162    -0.17700
C398        C  0.40903721  0.31817539  0.47737079    -0.17700
H399        H  0.35286929  0.30222919  0.12414711     0.15200
H400        H  0.30211829  0.35030401  0.12431580     0.15200
H401        H  0.32812413  0.27680448  0.43778886     0.15200
H402        H  0.27730880  0.32531511  0.43787325     0.15200
H403        H  0.49342697  0.30834876  0.05320167     0.13500
H404        H  0.48996262  0.30524376  0.49831198     0.13500
H405        H  0.30164412  0.48746903  0.05319652     0.13500
H406        H  0.30002731  0.48456854  0.49832457     0.13500
H407        H  0.39406827  0.39438117  0.05203599     0.26700
H408        H  0.39170687  0.39135571  0.99923817     0.26700
N409        N  0.21188987  0.41963536  0.44816638    -0.36000
N410        N  0.28679918  0.43585387  0.40629497    -0.56600
N411        N  0.22199402  0.44067805  0.36341162    -0.36000
N412        N  0.14979464  0.43018009  0.40660700    -0.56600
C413        C  0.23893475  0.40232744  0.46130255     0.27600
C414        C  0.16710497  0.39884120  0.46129991     0.27600
C415        C  0.26324347  0.45193190  0.34769783     0.27600
C416        C  0.19044196  0.45009155  0.34799804     0.27600
C417        C  0.31092882  0.43248850  0.42901775     0.36200
C418        C  0.31687439  0.44262169  0.38425705     0.36200
C419        C  0.12136090  0.42457649  0.42927301     0.36200
C420        C  0.12583738  0.43614037  0.38467897     0.36200
C421        C  0.21089792  0.36978502  0.48251763    -0.21300
C422        C  0.16542932  0.36746882  0.48246485    -0.21300
C423        C  0.25668284  0.46678818  0.32161016    -0.21300
C424        C  0.21119617  0.46569294  0.32180436    -0.21300
C425        C  0.35685028  0.43799925  0.42150184    -0.22400
C426        C  0.35943655  0.44173057  0.39331165    -0.22400
C427        C  0.07959129  0.42775952  0.42182375    -0.22400
C428        C  0.08100066  0.43234887  0.39368290    -0.22400
C429        C  0.28915297  0.41669269  0.45563926    -0.17700
C430        C  0.12840546  0.40919802  0.45574812    -0.17700
C431        C  0.14462568  0.44738371  0.35698127    -0.17700
C432        C  0.30783470  0.45172618  0.35636817    -0.17700
H433        H  0.22201379  0.34970285  0.49662632     0.15200
H434        H  0.13466614  0.34525263  0.49652985     0.15200
H435        H  0.28266695  0.47872595  0.30435558     0.15200
H436        H  0.19589250  0.47656906  0.30470174     0.15200
H437        H  0.38436657  0.43602275  0.43461215     0.13500
H438        H  0.38920900  0.44211945  0.38126243     0.13500
H439        H  0.04933361  0.42400437  0.43492675     0.13500
H440        H  0.05109329  0.43165433  0.38159919     0.13500
H441        H  0.22526669  0.44823493  0.43339605     0.26700
H442        H  0.21512108  0.42618841  0.38332155     0.26700
N443        N  0.21222438  0.41937040  0.10540318    -0.36000
N444        N  0.29053927  0.44412659  0.14583374    -0.56600
N445        N  0.23052959  0.45875937  0.18755483    -0.36000
N446        N  0.15121937  0.43225413  0.14684182    -0.56600
C447        C  0.24028019  0.40268651  0.09285152     0.27600
C448        C  0.16650198  0.39553298  0.09339723     0.27600
C449        C  0.26713966  0.45938873  0.20376740     0.27600
C450        C  0.19291558  0.45458192  0.20422629     0.27600
C451        C  0.31535066  0.44925806  0.12180207     0.36200
C452        C  0.32580689  0.46978523  0.16535003     0.36200
C453        C  0.12592009  0.42973314  0.12332024     0.36200
C454        C  0.13439458  0.45107054  0.16685689     0.36200
C455        C  0.21190072  0.36716990  0.07289100    -0.21300
C456        C  0.16504818  0.36268538  0.07320977    -0.21300
C457        C  0.25297488  0.45696500  0.23128769    -0.21300
C458        C  0.20662598  0.45399520  0.23157361    -0.21300
C459        C  0.36653890  0.47857960  0.12565516    -0.22400
C460        C  0.37333665  0.49227581  0.15303686    -0.22400
C461        C  0.09292274  0.44690380  0.12812250    -0.22400
C462        C  0.09761730  0.45983406  0.15549602    -0.22400
C463        C  0.29214345  0.42312995  0.09728331    -0.17700
C464        C  0.12857850  0.40738696  0.09829581    -0.17700
C465        C  0.14924724  0.45623046  0.19535007    -0.17700
C466        C  0.31477077  0.46730774  0.19422459    -0.17700
H467        H  0.22411017  0.34775617  0.05898128     0.15200
H468        H  0.13401086  0.33916006  0.05958620     0.15200
H469        H  0.27460587  0.46021144  0.24957949     0.15200
H470        H  0.18685456  0.45383805  0.25010262     0.15200
H471        H  0.39586426  0.48896667  0.11032244     0.13500
H472        H  0.40972168  0.51718084  0.16192566     0.13500
H473        H  0.06704849  0.44874639  0.11358687     0.13500
H474        H  0.07505730  0.47352901  0.16488408     0.13500
H475        H  0.22565782  0.45043785  0.11850118     0.26700
H476        H  0.23357468  0.46646849  0.16648334     0.26700
N477        N  0.99932503  0.35237027  0.48514295    -0.36000
N478        N  0.92311943  0.31770819  0.02621567    -0.56600
N479        N  0.99826662  0.35327486  0.06889331    -0.36000
N480        N  0.07459832  0.39208517  0.02715956    -0.56600
C481        C  0.95883825  0.31605436  0.47186939     0.27600
C482        C  0.04007953  0.35654260  0.47230641     0.27600
C483        C  0.95685237  0.31885074  0.08255983     0.27600
C484        C  0.03859055  0.35891474  0.08317496     0.27600
C485        C  0.89541790  0.31271287  0.00352025     0.36200
C486        C  0.89411478  0.31187654  0.04837174     0.36200
C487        C  0.10309972  0.41530450  0.00474460     0.36200
C488        C  0.10331023  0.41402889  0.04964834     0.36200
C489        C  0.97381436  0.29578792  0.45077202    -0.21300
C490        C  0.02556676  0.32159425  0.45104226    -0.21300
C491        C  0.97091852  0.30235313  0.10583445    -0.21300
C492        C  0.02270785  0.32778683  0.10624026    -0.21300
C493        C  0.84858230  0.30501726  0.01123138    -0.22400
C494        C  0.84768991  0.30431293  0.03981667    -0.22400
C495        C  0.15018470  0.45348730  0.01300589    -0.22400
C496        C  0.15040746  0.45247997  0.04159139    -0.22400
C497        C  0.90953468  0.30568756  0.47679333    -0.17700
C498        C  0.08930161  0.39540419  0.47768110    -0.17700
C499        C  0.08908049  0.39416035  0.07665872    -0.17700
C500        C  0.90705222  0.30534628  0.07548562    -0.17700
H501        H  0.95000467  0.26679832  0.43615976     0.15200
H502        H  0.04972346  0.31654211  0.43666892     0.15200
H503        H  0.94644623  0.27534955  0.12112442     0.15200
H504        H  0.04597702  0.32418112  0.12186919     0.15200
H505        H  0.81735965  0.29745857  0.49775397     0.13500
H506        H  0.81574576  0.29643875  0.05273213     0.13500
H507        H  0.18193096  0.47735374  0.49985465     0.13500
H508        H  0.18221605  0.47567629  0.05482735     0.13500
H509        H  0.99928281  0.37774071  0.99948724     0.26700
H510        H  0.99894576  0.37595261  0.05263133     0.26700
N511        N  0.35090924  0.99934983  0.06692724    -0.36000
N512        N  0.39237947  0.07464303  0.02489929    -0.56600
N513        N  0.35305952  0.99886427  0.48323716    -0.36000
N514        N  0.31602371  0.92351727  0.02562892    -0.56600
C515        C  0.35435025  0.03977775  0.07985563     0.27600
C516        C  0.31600018  0.95840081  0.08054956     0.27600
C517        C  0.36016864  0.03997648  0.46931407     0.27600
C518        C  0.31642773  0.95840605  0.46996597     0.27600
C519        C  0.41389322  0.10311038  0.04754555     0.36200
C520        C  0.41765736  0.10248705  0.00269324     0.36200
C521        C  0.31253074  0.89581342  0.04806067     0.36200
C522        C  0.30957340  0.89482202  0.00321365     0.36200
C523        C  0.32045846  0.02447689  0.10169528    -0.21300
C524        C  0.29604942  0.97268161  0.10213942    -0.21300
C525        C  0.32724815  0.02565424  0.44704213    -0.21300
C526        C  0.29956840  0.97384714  0.44742004    -0.21300
C527        C  0.45418206  0.14932721  0.03983960    -0.22400
C528        C  0.45667941  0.14888954  0.01128740    -0.22400
C529        C  0.30516429  0.84930109  0.03986609    -0.22400
C530        C  0.30305047  0.84859235  0.01129466    -0.22400
C531        C  0.39213367  0.08949692  0.07420260    -0.17700
C532        C  0.30616120  0.90933645  0.07510858    -0.17700
C533        C  0.30233970  0.90829290  0.47637102    -0.17700
C534        C  0.39867221  0.08940248  0.47539012    -0.17700
H535        H  0.31528655  0.04819211  0.11633597     0.15200
H536        H  0.26806233  0.94843893  0.11709254     0.15200
H537        H  0.32426974  0.04989759  0.43181086     0.15200
H538        H  0.27118654  0.95021940  0.43248014     0.15200
H539        H  0.47758015  0.18081713  0.05321739     0.13500
H540        H  0.48198268  0.18020205  0.49831223     0.13500
H541        H  0.29875644  0.81814369  0.05307097     0.13500
H542        H  0.29516786  0.81700331  0.49813126     0.13500
H543        H  0.37604182  0.99983301  0.05220959     0.26700
H544        H  0.37645085  0.99824383  0.99877047     0.26700
N545        N  0.00140086  0.61782007  0.48183426    -0.36000
N546        N  0.07683645  0.66049525  0.02511785    -0.56600
N547        N  0.00047542  0.63179699  0.06616488    -0.36000
N548        N  0.92494344  0.58633991  0.02455119    -0.56600
C549        C  0.04272587  0.65065682  0.46730827     0.27600
C550        C  0.96069417  0.60985776  0.46691363     0.27600
C551        C  0.04129234  0.66868902  0.07895826     0.27600
C552        C  0.96001371  0.62921527  0.07860790     0.27600
C553        C  0.10667544  0.66663356  0.00325365     0.36200
C554        C  0.10547729  0.67051495  0.04806424     0.36200
C555        C  0.89565108  0.56239639  0.00251202     0.36200
C556        C  0.89556518  0.56818096  0.04731235     0.36200
C557        C  0.02804982  0.66274282  0.44265043    -0.21300
C558        C  0.97637020  0.63700431  0.44239146    -0.21300
C559        C  0.02680004  0.69069004  0.09933974    -0.21300
C560        C  0.97512987  0.66559079  0.09911569    -0.21300
C561        C  0.15453816  0.67959218  0.01232016    -0.22400
C562        C  0.15366055  0.68160479  0.04082998    -0.22400
C563        C  0.84737312  0.52790756  0.01131554    -0.22400
C564        C  0.84739672  0.53135052  0.03979565    -0.22400
C565        C  0.09332856  0.66965022  0.47561816    -0.17700
C566        C  0.90977902  0.57861618  0.47485271    -0.17700
C567        C  0.91026729  0.59086827  0.07374762    -0.17700
C568        C  0.09067376  0.67886813  0.07433958    -0.17700
H569        H  0.05195906  0.68821652  0.42665134     0.15200
H570        H  0.95312904  0.63903208  0.42617338     0.15200
H571        H  0.05089385  0.72059735  0.11342922     0.15200
H572        H  0.95138136  0.67216906  0.11302555     0.15200
H573        H  0.18722646  0.68915799  0.49966339     0.13500
H574        H  0.18564326  0.69338975  0.05445766     0.13500
H575        H  0.81493443  0.50485178  0.49842157     0.13500
H576        H  0.81500080  0.51143039  0.05319344     0.13500
H577        H  0.00095978  0.59927722  0.00000639     0.26700
H578        H  0.00013106  0.60521981  0.05256706     0.26700
N579        N  0.65126708  0.65060042  0.06729826    -0.36000
N580        N  0.61130918  0.68493628  0.02523931    -0.56600
N581        N  0.65062779  0.64766218  0.48384283    -0.36000
N582        N  0.68569645  0.60840909  0.02624350    -0.56600
C583        C  0.64847121  0.68811249  0.08005679     0.27600
C584        C  0.68600375  0.64445104  0.08089988     0.27600
C585        C  0.64389371  0.68178806  0.46985435     0.27600
C586        C  0.68725652  0.64374712  0.47071464     0.27600
C587        C  0.58932993  0.69171471  0.04771347     0.36200
C588        C  0.58601303  0.68670792  0.00288006     0.36200
C589        C  0.68859807  0.58422139  0.04882282     0.36200
C590        C  0.69295040  0.58640913  0.00397337     0.36200
C591        C  0.68273278  0.70703146  0.10170343    -0.21300
C592        C  0.70666111  0.67927272  0.10223058    -0.21300
C593        C  0.67716074  0.70055037  0.44773784    -0.21300
C594        C  0.70464194  0.67631123  0.44825756    -0.21300
C595        C  0.54875134  0.69678648  0.03974252    -0.22400
C596        C  0.54656746  0.69350060  0.01119273    -0.22400
C597        C  0.69633966  0.54520242  0.04084342    -0.22400
C598        C  0.69939780  0.54679646  0.01227820    -0.22400
C599        C  0.61075474  0.70002900  0.07445690    -0.17700
C600        C  0.69485846  0.60450547  0.07580232    -0.17700
C601        C  0.70062915  0.60721846  0.47706943    -0.17700
C602        C  0.60515681  0.69232278  0.47563836    -0.17700
H603        H  0.68837935  0.73630573  0.11619416     0.15200
H604        H  0.73469473  0.68307158  0.11713625     0.15200
H605        H  0.68036165  0.72781230  0.43246374     0.15200
H606        H  0.73309813  0.68102236  0.43340848     0.15200
H607        H  0.52485285  0.70440255  0.05293018     0.13500
H608        H  0.52097273  0.69866650  0.49799123     0.13500
H609        H  0.70259206  0.52056269  0.05421121     0.13500
H610        H  0.70793727  0.52338579  0.49926823     0.13500
H611        H  0.62576940  0.62563109  0.05278092     0.26700
H612        H  0.62673472  0.62346970  0.99921526     0.26700
C613        C  0.53743308  0.65357768  0.21471820     0.43000
N614        N  0.55548320  0.60971297  0.24245111     0.01900
C615        C  0.43979685  0.34608065  0.23966138    -0.05900
H616        H  0.31328967  0.41269746  0.24942663     0.07400
C617        C  0.40357887  0.49967573  0.34182707    -0.06300
Co618      Co  0.50157980  0.50017032  0.22608276     0.74200
N619        N  0.39395287  0.44849300  0.24542097    -0.25500
Co620      Co  0.42087009  0.42078180  0.27677212     0.74100
C621        C  0.34990015  0.46674460  0.33572441     0.43100
N622        N  0.52494614  0.58246539  0.32282615     0.01500
N623        N  0.39528767  0.45086157  0.30764728     0.01700
N624        N  0.49528966  0.40168925  0.20949237    -0.46300
H625        H  0.48081025  0.58273755  0.19104664     0.07400
N626        N  0.42564082  0.47984066  0.22688546     0.01900
N627        N  0.45088028  0.39634897  0.30798534     0.01700
C628        C  0.46835199  0.35181145  0.33564260     0.43300
N629        N  0.55716927  0.61321748  0.30423377    -0.24900
C630        C  0.60253006  0.50513196  0.20978698    -0.05900
N631        N  0.56684223  0.65651842  0.23643065    -0.46000
N632        N  0.43935183  0.34943316  0.31384746    -0.46300
C633        C  0.65605733  0.53695924  0.21652917     0.43100
N634        N  0.48108388  0.42428548  0.22760126     0.01900
N635        N  0.61253514  0.55889528  0.30533168    -0.25000
N636        N  0.52149062  0.57621022  0.22555369    -0.25400
N637        N  0.58124212  0.52686903  0.32379346     0.01600
H638        H  0.69352892  0.59819424  0.30175166     0.07500
H639        H  0.52528831  0.42262030  0.35947664     0.07500
N640        N  0.44892438  0.39285703  0.24593085    -0.25500
N641        N  0.42829066  0.48552706  0.32449245    -0.25100
N642        N  0.61081415  0.55488105  0.24341419     0.01900
C643        C  0.35395643  0.47150045  0.21461145     0.43300
C644        C  0.56773710  0.66042988  0.31003200    -0.06400
N645        N  0.48485846  0.42970375  0.32500236    -0.25100
H646        H  0.42050497  0.52527758  0.35906195     0.07500
N647        N  0.40346014  0.49424552  0.20859705    -0.46300
H648        H  0.59568930  0.69409180  0.29956705     0.07500
C649        C  0.65431381  0.53977464  0.33669995     0.43200
C650        C  0.50621886  0.59999403  0.20830058    -0.05900
Co651      Co  0.58523494  0.58541082  0.27381685     0.73800
N652        N  0.51171012  0.60625907  0.34082562    -0.46000
C653        C  0.47148508  0.35204669  0.21522309     0.43400
N654        N  0.65792836  0.56659628  0.23789469    -0.46000
Co655      Co  0.50477649  0.50610852  0.32465165     0.73900
C656        C  0.49988323  0.40552724  0.34218092    -0.06400
C657        C  0.34751164  0.44006451  0.23918804    -0.05900
N658        N  0.57790953  0.52032503  0.22650184    -0.25500
N659        N  0.34806346  0.43791738  0.31390676    -0.46200
H660        H  0.41205040  0.31191516  0.24980302     0.07400
C661        C  0.65963938  0.56997622  0.31191849    -0.06300
Cl662      Cl  0.50309038  0.50309672  0.27535989    -0.49300
C663        C  0.53769062  0.65596372  0.33466051     0.43200
H664        H  0.58595911  0.47972928  0.19245843     0.07400
N665        N  0.60447470  0.51395594  0.34232678    -0.46100
C666        C  0.34528673  0.88132360  0.21594775     0.43000
N667        N  0.39018759  0.94391427  0.24323970     0.01900
C668        C  0.65332348  0.09288661  0.23937637    -0.05900
H669        H  0.58784720  0.89918207  0.24999620     0.07400
C670        C  0.50075001  0.90592140  0.34262469    -0.06300
Co671      Co  0.49942447  0.99847776  0.22627344     0.74200
N672        N  0.55154260  0.94366218  0.24624094    -0.25500
Co673      Co  0.57973776  0.99977555  0.27698026     0.74100
C674        C  0.53262186  0.88408967  0.33650643     0.43100
N675        N  0.41969411  0.94532467  0.32357111     0.01500
N676        N  0.54978667  0.94548901  0.30836792     0.01700
N677        N  0.59716957  0.09067596  0.20890954    -0.46300
H678        H  0.41560494  0.89365566  0.19254176     0.07400
N679        N  0.51947098  0.94308415  0.22795410     0.01900
N680        N  0.60494839  0.05550714  0.30758135     0.01700
C681        C  0.65013718  0.11689429  0.33544691     0.43300
N682        N  0.38823680  0.94577588  0.30517299    -0.24900
C683        C  0.49582291  0.09420662  0.20848233    -0.05900
N684        N  0.34310247  0.90879191  0.23736360    -0.46000
N685        N  0.65210735  0.08997277  0.31370676    -0.46300
C686        C  0.46458864  0.11656892  0.21452261     0.43100
N687        N  0.57519833  0.05398030  0.22714037     0.01900
N688        N  0.44361110  0.05597958  0.30405500    -0.25000
N689        N  0.42324434  0.94224007  0.22653673    -0.25400
N690        N  0.47585455  0.05752143  0.32260404     0.01600
H691        H  0.40594417  0.09900831  0.29918093     0.07500
H692        H  0.57982718  0.10466767  0.35900204     0.07500
N693        N  0.60694687  0.05447685  0.24561658    -0.25500
N694        N  0.51569803  0.94486774  0.32523385    -0.25100
N695        N  0.44564312  0.05422000  0.24224665     0.01900
C696        C  0.52830601  0.88021639  0.21551665     0.43300
C697        C  0.34137358  0.90876580  0.31161053    -0.06400
N698        N  0.57199890  0.05720654  0.32438745    -0.25100
H699        H  0.47496663  0.89748187  0.35973447     0.07500
N700        N  0.50486260  0.90623759  0.20986095    -0.46300
H701        H  0.30728688  0.90221931  0.30136854     0.07500
C702        C  0.46397652  0.11888513  0.33425688     0.43200
C703        C  0.39880974  0.90254958  0.20969575    -0.05900
Co704      Co  0.41557718  0.99994825  0.27365461     0.73800
N705        N  0.39696719  0.90854815  0.34181794    -0.46000
C706        C  0.64662708  0.11779782  0.21481734     0.43400
N707        N  0.43464939  0.08985331  0.23607663    -0.46000
Co708      Co  0.49581914  0.00127465  0.32457981     0.73900
C709        C  0.59663557  0.09618183  0.34165723    -0.06400
C710        C  0.56025428  0.90581487  0.23991978    -0.05900
N711        N  0.47989279  0.05480106  0.22558533    -0.25500
N712        N  0.56162066  0.91049192  0.31462325    -0.46200
H713        H  0.68761663  0.10019919  0.24965834     0.07400
C714        C  0.43358473  0.09302721  0.30972778    -0.06300
Cl715      Cl  0.49765369  0.99984381  0.27540215    -0.49300
C716        C  0.34719044  0.88377338  0.33623038     0.43200
H717        H  0.52183604  0.10273372  0.19153059     0.07400
N718        N  0.48966698  0.09497855  0.34040624    -0.46100
C719        C  0.88247840  0.34417673  0.33600157     0.43000
N720        N  0.94461936  0.38956432  0.30863089     0.01900
C721        C  0.09404700  0.65243646  0.31311920    -0.05900
H722        H  0.89869335  0.58541584  0.30184634     0.07400
C723        C  0.90598151  0.50027888  0.20989608    -0.06300
Co724      Co  0.99933072  0.49847629  0.32613389     0.74200
N725        N  0.94416109  0.55042280  0.30629975    -0.25500
Co726      Co  0.00011371  0.57920827  0.27557270     0.74100
C727        C  0.88434482  0.53225739  0.21586106     0.43100
N728        N  0.94508035  0.41936749  0.22858326     0.01500
N729        N  0.94546741  0.54934901  0.24420977     0.01700
N730        N  0.09149700  0.59614001  0.34365095    -0.46300
H731        H  0.89559160  0.41392599  0.36033540     0.07400
N732        N  0.94378680  0.51855106  0.32466816     0.01900
N733        N  0.05550682  0.60481072  0.24473507     0.01700
C734        C  0.11661071  0.64964317  0.21658152     0.43300
N735        N  0.94566819  0.38768670  0.24674766    -0.24900
C736        C  0.09468690  0.49321513  0.34358567    -0.05900
N737        N  0.90951680  0.34240699  0.31427548    -0.46000
N738        N  0.08980422  0.65194921  0.23833058    -0.46300
C739        C  0.11670489  0.46179481  0.33684361     0.43100
N740        N  0.05470776  0.57434076  0.32542928     0.01900
N741        N  0.05565536  0.44296635  0.24736710    -0.25000
N742        N  0.94327366  0.42230928  0.32573572    -0.25400
N743        N  0.05703218  0.47571334  0.22927690     0.01600
H744        H  0.09744491  0.40389049  0.25064730     0.07500
H745        H  0.10466610  0.57899221  0.19360653     0.07500
N746        N  0.05523316  0.60618502  0.30696342    -0.25500
N747        N  0.94474691  0.51520188  0.22737766    -0.25100
N748        N  0.05478601  0.44478254  0.30919978     0.01900
C749        C  0.87961966  0.52588319  0.33633686     0.43300
C750        C  0.90898004  0.34081422  0.24000389    -0.06400
N751        N  0.05707120  0.57169118  0.22802528    -0.25100
H752        H  0.89780753  0.47469368  0.19271815     0.07500
N753        N  0.90636647  0.50329409  0.34246188    -0.46300
H754        H  0.90297863  0.30662984  0.24988626     0.07500
C755        C  0.11802648  0.46414370  0.21656505     0.43200
C756        C  0.90398638  0.39753188  0.34279464    -0.05900
Co757      Co  0.00016752  0.41496979  0.27803857     0.73800
N758        N  0.90848639  0.39678818  0.21024082    -0.46000
C759        C  0.11903154  0.64553635  0.33759682     0.43400
N760        N  0.08999644  0.43304100  0.31498887    -0.46000
Co761      Co  0.00101868  0.49553394  0.22777408     0.73900
C762        C  0.09603140  0.59608073  0.21074561    -0.06400
C763        C  0.90555775  0.55815602  0.31213283    -0.05900
N764        N  0.05561012  0.47860322  0.32633621    -0.25500
N765        N  0.91059570  0.56129184  0.23779918    -0.46200
H766        H  0.10200321  0.68681045  0.30268024     0.07400
C767        C  0.09219919  0.43262202  0.24087886    -0.06300
Cl768      Cl  0.00018008  0.49710475  0.27687512    -0.49300
C769        C  0.88387900  0.34689920  0.21546944     0.43200
H770        H  0.10284617  0.51800654  0.36111072     0.07400
N771        N  0.09405658  0.48990414  0.21122784    -0.46100
N772        N  0.57702584  0.79189236  0.60369987    -0.36000
N773        N  0.57151425  0.72121702  0.64546182    -0.56600
N774        N  0.54433301  0.77238481  0.68720387    -0.36000
N775        N  0.55291473  0.84482049  0.64545299    -0.56600
C776        C  0.60205218  0.77193425  0.59097296     0.27600
C777        C  0.59089388  0.83613941  0.59102009     0.27600
C778        C  0.54767306  0.73825603  0.70361659     0.27600
C779        C  0.54102788  0.80650126  0.70374900     0.27600
C780        C  0.57897557  0.70010294  0.62259574     0.36200
C781        C  0.56137424  0.68848808  0.66662015     0.36200
C782        C  0.54569669  0.86381947  0.62172510     0.36200
C783        C  0.52898777  0.85488866  0.66578854     0.36200
C784        C  0.63227200  0.80383475  0.57008468    -0.21300
C785        C  0.62529977  0.84457054  0.57015630    -0.21300
C786        C  0.54508653  0.75003857  0.73108444    -0.21300
C787        C  0.54116065  0.79290990  0.73118818    -0.21300
C788        C  0.57395840  0.65403832  0.62925909    -0.22400
C789        C  0.56507663  0.64770087  0.65707485    -0.22400
C790        C  0.51684823  0.88575293  0.62656394    -0.22400
C791        C  0.50553098  0.87956739  0.65422627    -0.22400
C792        C  0.59562091  0.72411536  0.59651074    -0.17700
C793        C  0.57001537  0.86681872  0.59654553    -0.17700
C794        C  0.53283678  0.84618354  0.69458156    -0.17700
C795        C  0.54996573  0.69521211  0.69445606    -0.17700
H796        H  0.65648217  0.79812848  0.55607550     0.15200
H797        H  0.64301153  0.87635923  0.55617329     0.15200
H798        H  0.54521453  0.72955094  0.74928899     0.15200
H799        H  0.53628749  0.81011804  0.74954384     0.15200
H800        H  0.57833911  0.62829414  0.61585341     0.13500
H801        H  0.56340624  0.61677529  0.66855426     0.13500
H802        H  0.50519352  0.90428460  0.61168062     0.13500
H803        H  0.48114035  0.89103447  0.66366634     0.13500
H804        H  0.54765219  0.77361639  0.61781472     0.26700
H805        H  0.53950899  0.76947642  0.66592610     0.26700
N806        N  0.57727268  0.78934646  0.94787198    -0.36000
N807        N  0.55993155  0.84829642  0.90685542    -0.56600
N808        N  0.55689273  0.78064520  0.86318294    -0.36000
N809        N  0.56695151  0.71758669  0.90547453    -0.56600
C810        C  0.59364233  0.83321582  0.96151390     0.27600
C811        C  0.59988142  0.76631595  0.96009720     0.27600
C812        C  0.54679683  0.81168274  0.84770113     0.27600
C813        C  0.54817261  0.74048135  0.84718512     0.27600
C814        C  0.56287656  0.87510547  0.92978942     0.36200
C815        C  0.55444718  0.87278693  0.88501143     0.36200
C816        C  0.57306444  0.69466693  0.92792122     0.36200
C817        C  0.55907832  0.68716770  0.88350324     0.36200
C818        C  0.62710588  0.83828182  0.98225132    -0.21300
C819        C  0.63141664  0.79622705  0.98118921    -0.21300
C820        C  0.53342914  0.79183021  0.82120430    -0.21300
C821        C  0.53419443  0.74730468  0.82088924    -0.21300
C822        C  0.55809948  0.91606935  0.92261367    -0.22400
C823        C  0.55566772  0.91619847  0.89443771    -0.22400
C824        C  0.56802034  0.64897917  0.92042192    -0.22400
C825        C  0.56128469  0.64510994  0.89238879    -0.22400
C826        C  0.57874350  0.86877268  0.95624191    -0.17700
C827        C  0.59047025  0.71756312  0.95409878    -0.17700
C828        C  0.54969521  0.69646400  0.85572087    -0.17700
C829        C  0.54654157  0.85595137  0.85691479    -0.17700
H830        H  0.64678780  0.86931067  0.99654846     0.15200
H831        H  0.65487832  0.78841369  0.99463824     0.15200
H832        H  0.52245804  0.80685671  0.80401200     0.15200
H833        H  0.52381221  0.72201174  0.80338865     0.15200
H834        H  0.56027196  0.94539230  0.93594962     0.13500
H835        H  0.55671917  0.94658358  0.88268482     0.13500
H836        H  0.57203950  0.62244996  0.93337260     0.13500
H837        H  0.56033715  0.61500836  0.88042223     0.13500
H838        H  0.54840027  0.77378820  0.93326770     0.26700
H839        H  0.56992365  0.78701754  0.88338240     0.26700
N840        N  0.78684818  0.20652089  0.94756494    -0.36000
N841        N  0.84969778  0.27908145  0.90563513    -0.56600
N842        N  0.77807126  0.21747480  0.86262233    -0.36000
N843        N  0.71265080  0.14788031  0.90587980    -0.56600
C844        C  0.83164191  0.23073838  0.96068380     0.27600
C845        C  0.75928886  0.16256287  0.96115130     0.27600
C846        C  0.80892814  0.25896916  0.84732988     0.27600
C847        C  0.73615178  0.18827968  0.84728038     0.27600
C848        C  0.87798510  0.30202041  0.92831703     0.36200
C849        C  0.87381627  0.30916133  0.88375560     0.36200
C850        C  0.68823360  0.11979378  0.92842679     0.36200
C851        C  0.68318647  0.12438732  0.88367548     0.36200
C852        C  0.83278897  0.20155673  0.98231320    -0.21300
C853        C  0.78696615  0.15857869  0.98269283    -0.21300
C854        C  0.78710307  0.25487739  0.82156969    -0.21300
C855        C  0.74153722  0.21059921  0.82153348    -0.21300
C856        C  0.91978302  0.34718179  0.92091442    -0.22400
C857        C  0.91853491  0.35042788  0.89277861    -0.22400
C858        C  0.64287017  0.07875808  0.92058683    -0.22400
C859        C  0.64087106  0.08024081  0.89239328    -0.22400
C860        C  0.87068055  0.27973629  0.95484002    -0.17700
C861        C  0.70920472  0.12625263  0.95529018    -0.17700
C862        C  0.69201940  0.14329329  0.85598506    -0.17700
C863        C  0.85494473  0.30179065  0.85614033    -0.17700
H864        H  0.86341255  0.21039166  0.99651337     0.15200
H865        H  0.77545393  0.12777051  0.99715939     0.15200
H866        H  0.80169107  0.28175703  0.80472594     0.15200
H867        H  0.71471427  0.19724995  0.80465347     0.15200
H868        H  0.94988500  0.37387551  0.93406912     0.13500
H869        H  0.94831632  0.37992927  0.88070768     0.13500
H870        H  0.61527653  0.04882195  0.93349743     0.13500
H871        H  0.61151105  0.05084766  0.88007263     0.13500
H872        H  0.77392850  0.22150213  0.93243304     0.26700
H873        H  0.78573160  0.20873245  0.88209725     0.26700
N874        N  0.78291863  0.20798791  0.60391386    -0.36000
N875        N  0.84578986  0.28221329  0.64551988    -0.56600
N876        N  0.76923500  0.22891453  0.68706755    -0.36000
N877        N  0.70735726  0.15342084  0.64531524    -0.56600
C878        C  0.82837547  0.23007687  0.59163520     0.27600
C879        C  0.75465608  0.16310244  0.59138187     0.27600
C880        C  0.80724416  0.26268347  0.70351724     0.27600
C881        C  0.73299371  0.19292429  0.70346629     0.27600
C882        C  0.87031578  0.30490814  0.62181648     0.36200
C883        C  0.86475217  0.31757392  0.66573555     0.36200
C884        C  0.68128004  0.13361861  0.62156792     0.36200
C885        C  0.67309150  0.14428600  0.66535882     0.36200
C886        C  0.82936538  0.19875319  0.57122416    -0.21300
C887        C  0.78254205  0.15620882  0.57107217    -0.21300
C888        C  0.79398508  0.24862720  0.73093927    -0.21300
C889        C  0.74764038  0.20502884  0.73090789    -0.21300
C890        C  0.90481297  0.35482584  0.62668579    -0.22400
C891        C  0.90208790  0.36284280  0.65429484    -0.22400
C892        C  0.63038688  0.11209624  0.62612855    -0.22400
C893        C  0.62503902  0.11954660  0.65360843    -0.22400
C894        C  0.86678182  0.27974659  0.59671487    -0.17700
C895        C  0.70312920  0.13094275  0.59648265    -0.17700
C896        C  0.68523697  0.15288290  0.69417612    -0.17700
C897        C  0.85111804  0.30784321  0.69439401    -0.17700
H898        H  0.86018129  0.20628428  0.55744723     0.15200
H899        H  0.77014754  0.12445827  0.55720360     0.15200
H900        H  0.81405996  0.26848434  0.74936432     0.15200
H901        H  0.72633967  0.18668390  0.74931462     0.15200
H902        H  0.93078681  0.38236069  0.61206715     0.13500
H903        H  0.92645459  0.39868274  0.66378947     0.13500
H904        H  0.60034385  0.09343002  0.61114372     0.13500
H905        H  0.58918357  0.10881951  0.66289794     0.13500
H906        H  0.76994311  0.22540246  0.61744940     0.26700
H907        H  0.76558246  0.23301532  0.66600856     0.26700
N908        N  0.61966154  0.99890530  0.56948946    -0.36000
N909        N  0.58506914  0.92255124  0.52688915    -0.56600
N910        N  0.63231503  0.99780603  0.98548895    -0.36000
N911        N  0.66263635  0.07429624  0.52647168    -0.56600
C912        C  0.61207709  0.95786975  0.58391628     0.27600
C913        C  0.65390784  0.03982966  0.58375460     0.27600
C914        C  0.62914677  0.95691091  0.97327328     0.27600
C915        C  0.67004852  0.03821872  0.97284589     0.27600
C916        C  0.56121075  0.89338830  0.54891738     0.36200
C917        C  0.56663673  0.89322186  0.50420987     0.36200
C918        C  0.66898059  0.10409811  0.54838365     0.36200
C919        C  0.67266665  0.10294047  0.50352735     0.36200
C920        C  0.64129486  0.97292127  0.60773800    -0.21300
C921        C  0.66764985  0.02462467  0.60764331    -0.21300
C922        C  0.66592587  0.97132326  0.95304627    -0.21300
C923        C  0.69197262  0.02302537  0.95279483    -0.21300
C924        C  0.52604972  0.84527807  0.54018945    -0.22400
C925        C  0.52930114  0.84525044  0.51170326    -0.22400
C926        C  0.68186219  0.15196186  0.53934807    -0.22400
C927        C  0.68382574  0.15112886  0.51080568    -0.22400
C928        C  0.57886997  0.90721782  0.57628575    -0.17700
C929        C  0.67234616  0.09052656  0.57593858    -0.17700
C930        C  0.68096456  0.08788393  0.97726665    -0.17700
C931        C  0.59001388  0.90746673  0.97806179    -0.17700
H932        H  0.64393866  0.94920394  0.62344249     0.15200
H933        H  0.69442096  0.04824583  0.62324844     0.15200
H934        H  0.67218805  0.94710633  0.93934211     0.15200
H935        H  0.72240854  0.04670452  0.93887666     0.15200
H936        H  0.50303772  0.81287012  0.55309390     0.13500
H937        H  0.50920145  0.81277990  0.99836494     0.13500
H938        H  0.69166771  0.18467421  0.55203625     0.13500
H939        H  0.69565306  0.18307164  0.99717763     0.13500
H940        H  0.59976431  0.99900724  0.55201440     0.26700
H941        H  0.60575032  0.99816335  0.49881411     0.26700
N942        N  0.79441681  0.57663204  0.94746004    -0.36000
N943        N  0.84655836  0.55287925  0.90573644    -0.56600
N944        N  0.77176103  0.54226373  0.86434531    -0.40200
N945        N  0.72109129  0.56841482  0.90623948    -0.56600
C946        C  0.83909439  0.59145172  0.95984051     0.27600
C947        C  0.77386593  0.60099988  0.96021227     0.27600
C948        C  0.80635805  0.53988624  0.84779188     0.27600
C949        C  0.73817594  0.54688609  0.84805784     0.27600
C950        C  0.86523905  0.54504432  0.92943235     0.36200
C951        C  0.85332752  0.52615327  0.88570398     0.36200
C952        C  0.69952465  0.57248894  0.92986467     0.36200
C953        C  0.68604624  0.55428648  0.88593027     0.36200
C954        C  0.84740202  0.62614482  0.98049810    -0.21300
C955        C  0.80593890  0.63206023  0.98080146    -0.21300
C956        C  0.79373162  0.54181487  0.82040276    -0.21300
C957        C  0.75100619  0.54598588  0.82056543    -0.21300
C958        C  0.88373344  0.51310702  0.92484028    -0.22400
C959        C  0.87534493  0.50022148  0.89736301    -0.22400
C960        C  0.65070667  0.56100422  0.92471952    -0.22400
C961        C  0.64249110  0.55082081  0.89706495    -0.22400
C962        C  0.86956879  0.57028737  0.95447497    -0.17700
C963        C  0.72498470  0.59214038  0.95525674    -0.17700
C964        C  0.69419608  0.54753195  0.85742401    -0.17700
C965        C  0.84520395  0.53042356  0.85695186    -0.17700
H966        H  0.87934386  0.64435739  0.99434736     0.15200
H967        H  0.79967823  0.65575216  0.99491776     0.15200
H968        H  0.81109011  0.53742603  0.80197731     0.15200
H969        H  0.73092087  0.54619310  0.80225131     0.15200
H970        H  0.90087872  0.50004864  0.93981246     0.13500
H971        H  0.88351614  0.47335414  0.88791088     0.13500
H972        H  0.62411904  0.56178027  0.93913764     0.13500
H973        H  0.60799659  0.54317229  0.88713910     0.13500
H974        H  0.77599115  0.54664677  0.93371630     0.26700
H975        H  0.76814840  0.53546555  0.88549774     0.26700
N976        N  0.79226836  0.57832754  0.60415225    -0.36000
N977        N  0.85031489  0.56073960  0.64517415    -0.56600
N978        N  0.78168399  0.55706911  0.68891862    -0.36000
N979        N  0.72005121  0.56830398  0.64651584    -0.56600
C980        C  0.83605292  0.59463078  0.59042037     0.27600
C981        C  0.76890693  0.60030224  0.59168813     0.27600
C982        C  0.81174556  0.54552307  0.70425292     0.27600
C983        C  0.74103253  0.54772843  0.70467254     0.27600
C984        C  0.87771681  0.56410570  0.62236221     0.36200
C985        C  0.87410649  0.55465180  0.66719354     0.36200
C986        C  0.69756765  0.57492460  0.62404263     0.36200
C987        C  0.69036383  0.56245380  0.66855352     0.36200
C988        C  0.84078888  0.62757852  0.56945066    -0.21300
C989        C  0.79852869  0.63147013  0.57038243    -0.21300
C990        C  0.79067962  0.53038238  0.73042674    -0.21300
C991        C  0.74642203  0.53171146  0.73067424    -0.21300
C992        C  0.91838964  0.55905801  0.62979815    -0.22400
C993        C  0.91766906  0.55587188  0.65799437    -0.22400
C994        C  0.65297188  0.57239045  0.63169315    -0.22400
C995        C  0.64963424  0.56698165  0.65980990    -0.22400
C996        C  0.87168303  0.57990440  0.59575106    -0.17700
C997        C  0.72008954  0.59060630  0.59761385    -0.17700
C998        C  0.69806993  0.55104522  0.69615454    -0.17700
C999        C  0.85649352  0.54607809  0.69522606    -0.17700
H1000       H  0.87167077  0.64711487  0.55504310     0.15200
H1001       H  0.79038504  0.65441486  0.55670228     0.15200
H1002       H  0.80488847  0.51817019  0.74746225     0.15200
H1003       H  0.72052055  0.52082224  0.74793331     0.15200
H1004       H  0.94794098  0.56127562  0.61663907     0.13500
H1005       H  0.94758638  0.55633103  0.66992803     0.13500
H1006       H  0.62690831  0.57715443  0.61875643     0.13500
H1007       H  0.62065530  0.56775933  0.67208672     0.13500
H1008       H  0.77677936  0.54970050  0.61890052     0.26700
H1009       H  0.78942930  0.57197779  0.66909472     0.26700
N1010       N  0.20874970  0.78528701  0.60396269    -0.36000
N1011       N  0.28125204  0.84809581  0.64583119    -0.56600
N1012       N  0.21899968  0.77648404  0.68878200    -0.36000
N1013       N  0.15019203  0.71051571  0.64560810    -0.56600
C1014       C  0.23213996  0.83037671  0.59109581     0.27600
C1015       C  0.16486197  0.75732036  0.59041835     0.27600
C1016       C  0.25951556  0.80828008  0.70447052     0.27600
C1017       C  0.18816020  0.73583088  0.70462377     0.27600
C1018       C  0.30401064  0.87634938  0.62310439     0.36200
C1019       C  0.31195130  0.87149709  0.66760311     0.36200
C1020       C  0.12308416  0.68570639  0.62289019     0.36200
C1021       C  0.12625019  0.68115260  0.66777296     0.36200
C1022       C  0.20246030  0.83124017  0.56966167    -0.21300
C1023       C  0.16010923  0.78494483  0.56910710    -0.21300
C1024       C  0.25313521  0.78831481  0.73095159    -0.21300
C1025       C  0.20846722  0.74302193  0.73105708    -0.21300
C1026       C  0.34979206  0.91744069  0.63027846    -0.22400
C1027       C  0.35381339  0.91564272  0.65836939    -0.22400
C1028       C  0.08233782  0.64000168  0.63052644    -0.22400
C1029       C  0.08279672  0.63832975  0.65875873    -0.22400
C1030       C  0.28098226  0.86982371  0.59687180    -0.17700
C1031       C  0.12925815  0.70695670  0.59614138    -0.17700
C1032       C  0.14371296  0.69109674  0.69579064    -0.17700
C1033       C  0.30343961  0.85341402  0.69548439    -0.17700
H1034       H  0.21059007  0.86194466  0.55566261     0.15200
H1035       H  0.12916309  0.77312032  0.55470579     0.15200
H1036       H  0.27874322  0.80392303  0.74829940     0.15200
H1037       H  0.19360492  0.71751422  0.74849041     0.15200
H1038       H  0.37622672  0.94761089  0.61704695     0.13500
H1039       H  0.38378542  0.94525450  0.67026426     0.13500
H1040       H  0.05286892  0.61227715  0.61743125     0.13500
H1041       H  0.05284904  0.60908461  0.67085295     0.13500
H1042       H  0.22419736  0.77246651  0.61887971     0.26700
H1043       H  0.21223735  0.78250425  0.66854184     0.26700
N1044       N  0.20845649  0.78322070  0.94768076    -0.36000
N1045       N  0.28098469  0.84761670  0.90585900    -0.56600
N1046       N  0.22995008  0.76912751  0.86471436    -0.36000
N1047       N  0.15630194  0.70602215  0.90672166    -0.56600
C1048       C  0.22861328  0.82870947  0.95981457     0.27600
C1049       C  0.16417239  0.75321654  0.96042208     0.27600
C1050       C  0.26373929  0.80675831  0.84813691     0.27600
C1051       C  0.19483490  0.73189194  0.84840451     0.27600
C1052       C  0.30279585  0.87373262  0.92933901     0.36200
C1053       C  0.31625780  0.86737960  0.88560659     0.36200
C1054       C  0.13823372  0.67989613  0.93058323     0.36200
C1055       C  0.14795498  0.67205475  0.88667526     0.36200
C1056       C  0.19664948  0.82795486  0.98036982    -0.21300
C1057       C  0.15569188  0.78004622  0.98072486    -0.21300
C1058       C  0.25080361  0.79220361  0.82074018    -0.21300
C1059       C  0.20757146  0.74551593  0.82091151    -0.21300
C1060       C  0.35198704  0.91023821  0.92420205    -0.22400
C1061       C  0.36031671  0.90716807  0.89667922    -0.22400
C1062       C  0.11872676  0.62918633  0.92609111    -0.22400
C1063       C  0.12554672  0.62412092  0.89844739    -0.22400
C1064       C  0.27743627  0.86876079  0.95462010    -0.17700
C1065       C  0.13405214  0.70128234  0.95546651    -0.17700
C1066       C  0.15512354  0.68415629  0.85788251    -0.17700
C1067       C  0.30776798  0.85178331  0.85719273    -0.17700
H1068       H  0.20280516  0.85836955  0.99412110     0.15200
H1069       H  0.12400189  0.76630242  0.99475231     0.15200
H1070       H  0.27100997  0.81197276  0.80231459     0.15200
H1071       H  0.18979363  0.72326440  0.80267178     0.15200
H1072       H  0.37886778  0.93760596  0.93855318     0.13500
H1073       H  0.39540222  0.93303086  0.88688744     0.13500
H1074       H  0.10138060  0.59910213  0.94115922     0.13500
H1075       H  0.11590402  0.58872092  0.88888523     0.13500
H1076       H  0.22701813  0.77153395  0.93415692     0.26700
H1077       H  0.23353495  0.76672136  0.88592510     0.26700
N1078       N  0.42126148  0.21337304  0.60380294    -0.36000
N1079       N  0.43118545  0.15028967  0.64503105    -0.56600
N1080       N  0.45666958  0.22822707  0.68691578    -0.36000
N1081       N  0.44435963  0.29027987  0.64549736    -0.56600
C1082       C  0.39763951  0.16842103  0.59095531     0.27600
C1083       C  0.40595903  0.24258492  0.59124481     0.27600
C1084       C  0.45345817  0.19065859  0.70325559     0.27600
C1085       C  0.45856483  0.26504894  0.70350491     0.27600
C1086       C  0.42454350  0.12223731  0.62202116     0.36200
C1087       C  0.44261755  0.12841959  0.66600098     0.36200
C1088       C  0.45068960  0.31604618  0.62166174     0.36200
C1089       C  0.46894073  0.32484187  0.66554723     0.36200
C1090       C  0.36665182  0.16881582  0.57015066    -0.21300
C1091       C  0.37181078  0.21582055  0.57038875    -0.21300
C1092       C  0.45465532  0.20440517  0.73074925    -0.21300
C1093       C  0.45764283  0.25085210  0.73091985    -0.21300
C1094       C  0.43152190  0.08230477  0.62832264    -0.22400
C1095       C  0.44078931  0.08491028  0.65609487    -0.22400
C1096       C  0.47947497  0.36704015  0.62617647    -0.22400
C1097       C  0.49176794  0.37282234  0.65371994    -0.22400
C1098       C  0.40643601  0.12854649  0.59620190    -0.17700
C1099       C  0.42602013  0.29406812  0.59661907    -0.17700
C1100       C  0.46621664  0.31287520  0.69437167    -0.17700
C1101       C  0.45258178  0.14590132  0.69404034    -0.17700
H1102       H  0.34333681  0.13863332  0.55600650     0.15200
H1103       H  0.35338863  0.22905110  0.55640303     0.15200
H1104       H  0.45426442  0.18365105  0.74895166     0.15200
H1105       H  0.46124876  0.27237881  0.74933647     0.15200
H1106       H  0.42768374  0.05255553  0.61474820     0.13500
H1107       H  0.44332131  0.05588174  0.66726157     0.13500
H1108       H  0.49057165  0.39693808  0.61113168     0.13500
H1109       H  0.51636037  0.40898393  0.66290186     0.13500
H1110       H  0.45103242  0.22553891  0.61772829     0.26700
H1111       H  0.46254549  0.23083805  0.66569653     0.26700
N1112       N  0.42443718  0.21398398  0.94740713    -0.36000
N1113       N  0.43575036  0.15263017  0.90507206    -0.56600
N1114       N  0.44430516  0.22424310  0.86233343    -0.36000
N1115       N  0.43922503  0.28854226  0.90591889    -0.56600
C1116       C  0.40336676  0.16866319  0.96006386     0.27600
C1117       C  0.40760485  0.24100796  0.96110764     0.27600
C1118       C  0.45465468  0.19358097  0.84669436     0.27600
C1119       C  0.45558883  0.26588463  0.84701933     0.27600
C1120       C  0.43087705  0.12449114  0.92777054     0.36200
C1121       C  0.44369293  0.12981459  0.88323315     0.36200
C1122       C  0.43511649  0.31236750  0.92859549     0.36200
C1123       C  0.44380512  0.31764232  0.88376961     0.36200
C1124       C  0.37238975  0.16676943  0.98151686    -0.21300
C1125       C  0.37538508  0.21255710  0.98231469    -0.21300
C1126       C  0.47102471  0.21544346  0.82078006    -0.21300
C1127       C  0.47163182  0.26066095  0.82099319    -0.21300
C1128       C  0.43700620  0.08440956  0.92055893    -0.22400
C1129       C  0.44286304  0.08640217  0.89249823    -0.22400
C1130       C  0.43801995  0.35709957  0.92086604    -0.22400
C1131       C  0.44056750  0.35899406  0.89266384    -0.22400
C1132       C  0.41337740  0.12974569  0.95398186    -0.17700
C1133       C  0.42073599  0.29099284  0.95542568    -0.17700
C1134       C  0.45394300  0.30952405  0.85595610    -0.17700
C1135       C  0.45254183  0.14783726  0.85529958    -0.17700
H1136       H  0.34991799  0.13562410  0.99530395     0.15200
H1137       H  0.35545574  0.22336794  0.99670700     0.15200
H1138       H  0.48304821  0.20124621  0.80366160     0.15200
H1139       H  0.48396201  0.28732829  0.80404945     0.15200
H1140       H  0.43415064  0.05461320  0.93376447     0.13500
H1141       H  0.44428094  0.05720367  0.88086111     0.13500
H1142       H  0.43509578  0.38418847  0.93386484     0.13500
H1143       H  0.43900204  0.38763736  0.88047144     0.13500
H1144       H  0.45257384  0.22745220  0.93236954     0.26700
H1145       H  0.42888614  0.21654079  0.88205059     0.26700
N1146       N  0.37456948  0.37450605  0.56965039    -0.36000
N1147       N  0.41098464  0.33485371  0.52668717    -0.56600
N1148       N  0.36582774  0.36500221  0.98536975    -0.36000
N1149       N  0.33257411  0.40800859  0.52699119    -0.56600
C1150       C  0.38290580  0.34166969  0.58408946     0.27600
C1151       C  0.34079857  0.38125718  0.58423299     0.27600
C1152       C  0.36986381  0.32823801  0.97255497     0.27600
C1153       C  0.32831870  0.36781002  0.97266670     0.27600
C1154       C  0.43422897  0.32905318  0.54886221     0.36200
C1155       C  0.43108186  0.32603127  0.50396855     0.36200
C1156       C  0.32511768  0.43031750  0.54907299     0.36200
C1157       C  0.32343006  0.42762363  0.50420158     0.36200
C1158       C  0.35469536  0.32801330  0.60829720    -0.21300
C1159       C  0.32818303  0.35307782  0.60840456    -0.21300
C1160       C  0.33374039  0.30651452  0.95193648    -0.21300
C1161       C  0.30737702  0.33172104  0.95198076    -0.21300
C1162       C  0.47034159  0.31750398  0.54023549    -0.22400
C1163       C  0.46860114  0.31594275  0.51167996    -0.22400
C1164       C  0.31202606  0.46524074  0.54034745    -0.22400
C1165       C  0.31137342  0.46385553  0.51179880    -0.22400
C1166       C  0.41631853  0.32478343  0.57626243    -0.17700
C1167       C  0.32206388  0.41317114  0.57652469    -0.17700
C1168       C  0.31683903  0.40596762  0.97758146    -0.17700
C1169       C  0.40901787  0.31811823  0.97737794    -0.17700
H1170       H  0.35292724  0.30229303  0.62417588     0.15200
H1171       H  0.30214373  0.35033216  0.62434949     0.15200
H1172       H  0.32809579  0.27676750  0.93780195     0.15200
H1173       H  0.27731960  0.32531733  0.93788281     0.15200
H1174       H  0.49341755  0.30837637  0.55320016     0.13500
H1175       H  0.48995354  0.30519336  0.99831388     0.13500
H1176       H  0.30163868  0.48746767  0.55320609     0.13500
H1177       H  0.30002571  0.48456004  0.99831737     0.13500
H1178       H  0.39399578  0.39435493  0.55203236     0.26700
H1179       H  0.39167660  0.39137483  0.49923828     0.26700
N1180       N  0.21189032  0.41959426  0.94817464    -0.36000
N1181       N  0.28679492  0.43585627  0.90630458    -0.56600
N1182       N  0.22194063  0.44063204  0.86342637    -0.36000
N1183       N  0.14975030  0.43010861  0.90662011    -0.56600
C1184       C  0.23895898  0.40231788  0.96131581     0.27600
C1185       C  0.16710932  0.39879110  0.96131268     0.27600
C1186       C  0.26318914  0.45189420  0.84770847     0.27600
C1187       C  0.19036902  0.45002050  0.84801188     0.27600
C1188       C  0.31093631  0.43248396  0.92901995     0.36200
C1189       C  0.31684502  0.44259849  0.88425920     0.36200
C1190       C  0.12135234  0.42453686  0.92929676     0.36200
C1191       C  0.12579261  0.43610119  0.88470288     0.36200
C1192       C  0.21094229  0.36978869  0.98254004    -0.21300
C1193       C  0.16546015  0.36744422  0.98248582    -0.21300
C1194       C  0.25661105  0.46673344  0.82162012    -0.21300
C1195       C  0.21111323  0.46561566  0.82181597    -0.21300
C1196       C  0.35684207  0.43796942  0.92149215    -0.22400
C1197       C  0.35940213  0.44168564  0.89330196    -0.22400
C1198       C  0.07960389  0.42777303  0.92186666    -0.22400
C1199       C  0.08098992  0.43236658  0.89372573    -0.22400
C1200       C  0.28917828  0.41669469  0.95564474    -0.17700
C1201       C  0.12840136  0.40913815  0.95576452    -0.17700
C1202       C  0.14455134  0.44731114  0.85699785    -0.17700
C1203       C  0.30778824  0.45169620  0.85637301    -0.17700
H1204       H  0.22207910  0.34973200  0.99665472     0.15200
H1205       H  0.13470840  0.34523224  0.99655819     0.15200
H1206       H  0.28258927  0.47867076  0.80436271     0.15200
H1207       H  0.19579698  0.47647678  0.80471287     0.15200
H1208       H  0.38436095  0.43597998  0.93459420     0.13500
H1209       H  0.38915304  0.44204700  0.88124390     0.13500
H1210       H  0.04937295  0.42404743  0.93498246     0.13500
H1211       H  0.05108599  0.43170656  0.88165577     0.13500
H1212       H  0.22524726  0.44818353  0.93339939     0.26700
H1213       H  0.21508542  0.42615230  0.88333782     0.26700
N1214       N  0.21219386  0.41938299  0.60540470    -0.36000
N1215       N  0.29048588  0.44411450  0.64584329    -0.56600
N1216       N  0.23048737  0.45876822  0.68755634    -0.36000
N1217       N  0.15119724  0.43229185  0.64683158    -0.56600
C1218       C  0.24022986  0.40266595  0.59286508     0.27600
C1219       C  0.16647322  0.39555892  0.59339729     0.27600
C1220       C  0.26706862  0.45935120  0.70377295     0.27600
C1221       C  0.19285980  0.45457663  0.70421971     0.27600
C1222       C  0.31530040  0.44922897  0.62181476     0.36200
C1223       C  0.32575104  0.46974967  0.66536461     0.36200
C1224       C  0.12595336  0.42983928  0.62329918     0.36200
C1225       C  0.13443195  0.45118880  0.66683324     0.36200
C1226       C  0.21183705  0.36713614  0.57291275    -0.21300
C1227       C  0.16499677  0.36268222  0.57322236    -0.21300
C1228       C  0.25287269  0.45688326  0.73129025    -0.21300
C1229       C  0.20653274  0.45393341  0.73156885    -0.21300
C1230       C  0.36648967  0.47852045  0.62567417    -0.22400
C1231       C  0.37328510  0.49221130  0.65305667    -0.22400
C1232       C  0.09305203  0.44713427  0.62807891    -0.22400
C1233       C  0.09776277  0.46009299  0.65544923    -0.22400
C1234       C  0.29209069  0.42309953  0.59729606    -0.17700
C1235       C  0.12858136  0.40745934  0.59828255    -0.17700
C1236       C  0.14922261  0.45627444  0.69533459    -0.17700
C1237       C  0.31470157  0.46726558  0.69423835    -0.17700
H1238       H  0.22403213  0.34769778  0.55901230     0.15200
H1239       H  0.13395566  0.33916174  0.55959992     0.15200
H1240       H  0.27447760  0.46008674  0.74958648     0.15200
H1241       H  0.18674988  0.45376027  0.75009600     0.15200
H1242       H  0.39581818  0.48888590  0.61034587     0.13500
H1243       H  0.40967409  0.51709074  0.66194782     0.13500
H1244       H  0.06724607  0.44906042  0.61352697     0.13500
H1245       H  0.07530468  0.47392749  0.66481562     0.13500
H1246       H  0.22564275  0.45046479  0.61849350     0.26700
H1247       H  0.23356139  0.46651958  0.66648824     0.26700
N1248       N  0.99932488  0.35230137  0.98515726    -0.36000
N1249       N  0.92311629  0.31775130  0.52620635    -0.56600
N1250       N  0.99826472  0.35333523  0.56888455    -0.36000
N1251       N  0.07460087  0.39215457  0.52714550    -0.56600
C1252       C  0.95883820  0.31599363  0.97188133     0.27600
C1253       C  0.04007854  0.35648024  0.97231865     0.27600
C1254       C  0.95685592  0.31891458  0.58255716     0.27600
C1255       C  0.03859471  0.35900240  0.58317087     0.27600
C1256       C  0.89540861  0.31274611  0.50351195     0.36200
C1257       C  0.89409937  0.31188283  0.54836280     0.36200
C1258       C  0.10310197  0.41537224  0.50472937     0.36200
C1259       C  0.10331332  0.41409972  0.54963450     0.36200
C1260       C  0.97381393  0.29573593  0.95077887    -0.21300
C1261       C  0.02556578  0.32154502  0.95104766    -0.21300
C1262       C  0.97093239  0.30245013  0.60584114    -0.21300
C1263       C  0.02272106  0.32789820  0.60624598    -0.21300
C1264       C  0.84855760  0.30500746  0.51122482    -0.22400
C1265       C  0.84766005  0.30428112  0.53980907    -0.22400
C1266       C  0.15018699  0.45355553  0.51299060    -0.22400
C1267       C  0.15041096  0.45254910  0.54157667    -0.22400
C1268       C  0.90953705  0.30563467  0.97680390    -0.17700
C1269       C  0.08930039  0.39533665  0.97769742    -0.17700
C1270       C  0.08908347  0.39424052  0.57664730    -0.17700
C1271       C  0.90704791  0.30537260  0.57547773    -0.17700
H1272       H  0.95000517  0.26675462  0.93616245     0.15200
H1273       H  0.04972247  0.31650133  0.93666992     0.15200
H1274       H  0.94646709  0.27545498  0.62113630     0.15200
H1275       H  0.04599574  0.32431373  0.62187994     0.15200
H1276       H  0.81739045  0.29748447  0.99775918     0.13500
H1277       H  0.81570668  0.29637578  0.55272453     0.13500
H1278       H  0.18192954  0.47728582  0.99987059     0.13500
H1279       H  0.18221897  0.47574593  0.55481257     0.13500
H1280       H  0.99928104  0.37781104  0.49947022     0.26700
H1281       H  0.99893615  0.37599083  0.55261239     0.26700
N1282       N  0.35085238  0.99936922  0.56693857    -0.36000
N1283       N  0.39228897  0.07466563  0.52490043    -0.56600
N1284       N  0.35315482  0.99883764  0.98321996    -0.36000
N1285       N  0.31598460  0.92354769  0.52564973    -0.56600
C1286       C  0.35428008  0.03979228  0.57986341     0.27600
C1287       C  0.31596048  0.95841898  0.58056739     0.27600
C1288       C  0.36029185  0.03995789  0.96929311     0.27600
C1289       C  0.31655624  0.95838355  0.96992672     0.27600
C1290       C  0.41380204  0.10313217  0.54754587     0.36200
C1291       C  0.41755488  0.10251647  0.50269338     0.36200
C1292       C  0.31251550  0.89584800  0.54807808     0.36200
C1293       C  0.30951804  0.89485322  0.50323289     0.36200
C1294       C  0.32040035  0.02448897  0.60170915    -0.21300
C1295       C  0.29600809  0.97269459  0.60215880    -0.21300
C1296       C  0.32742614  0.02564289  0.94699519    -0.21300
C1297       C  0.29975281  0.97383499  0.94736057    -0.21300
C1298       C  0.45407922  0.14935677  0.53983881    -0.22400
C1299       C  0.45656971  0.14892424  0.51128599    -0.22400
C1300       C  0.30515625  0.84934040  0.53987940    -0.22400
C1301       C  0.30301594  0.84862897  0.51130852    -0.22400
C1302       C  0.39204915  0.08951143  0.57420364    -0.17700
C1303       C  0.30613513  0.90936020  0.57512544    -0.17700
C1304       C  0.30242983  0.90826377  0.97634432    -0.17700
C1305       C  0.39877922  0.08938528  0.97538836    -0.17700
H1306       H  0.31522526  0.04820296  0.61634929     0.15200
H1307       H  0.26803152  0.94845028  0.61711616     0.15200
H1308       H  0.32447880  0.04989168  0.93175496     0.15200
H1309       H  0.27140565  0.95021558  0.93240316     0.15200
H1310       H  0.47747335  0.18084780  0.55321685     0.13500
H1311       H  0.48210160  0.18016353  0.99831375     0.13500
H1312       H  0.29876044  0.81818399  0.55308199     0.13500
H1313       H  0.29520965  0.81696645  0.99811912     0.13500
H1314       H  0.37598504  0.99986186  0.55221811     0.26700
H1315       H  0.37639560  0.99827615  0.49876644     0.26700
N1316       N  0.00139194  0.61784180  0.98185009    -0.36000
N1317       N  0.07682325  0.66048461  0.52510289    -0.56600
N1318       N  0.00044597  0.63180482  0.56614880    -0.36000
N1319       N  0.92493135  0.58635493  0.52453670    -0.56600
C1320       C  0.04270890  0.65071425  0.96733052     0.27600
C1321       C  0.96067821  0.60988380  0.96693604     0.27600
C1322       C  0.04126421  0.66870450  0.57893809     0.27600
C1323       C  0.95998418  0.62921735  0.57859661     0.27600
C1324       C  0.10666522  0.66658359  0.50324695     0.36200
C1325       C  0.10544948  0.67049837  0.54805398     0.36200
C1326       C  0.89564927  0.56241236  0.50249465     0.36200
C1327       C  0.89553786  0.56820553  0.54729349     0.36200
C1328       C  0.02802175  0.66283429  0.94268745    -0.21300
C1329       C  0.97634272  0.63707515  0.94242852    -0.21300
C1330       C  0.02677160  0.69070267  0.59932149    -0.21300
C1331       C  0.97510049  0.66559077  0.59910491    -0.21300
C1332       C  0.15451375  0.67951236  0.51232351    -0.22400
C1333       C  0.15362474  0.68154540  0.54083201    -0.22400
C1334       C  0.84736220  0.52793634  0.51129219    -0.22400
C1335       C  0.84736936  0.53138635  0.53977125    -0.22400
C1336       C  0.09331596  0.66970086  0.97562837    -0.17700
C1337       C  0.90976651  0.57861013  0.97487002    -0.17700
C1338       C  0.91023577  0.59087991  0.57373154    -0.17700
C1339       C  0.09064569  0.67887999  0.57432110    -0.17700
H1340       H  0.05192438  0.68834016  0.92669736     0.15200
H1341       H  0.95309275  0.63911823  0.92622080     0.15200
H1342       H  0.05086577  0.72061198  0.61340939     0.15200
H1343       H  0.95135166  0.67216475  0.61301666     0.15200
H1344       H  0.18725133  0.68927053  0.99965374     0.13500
H1345       H  0.18559632  0.69331484  0.55446598     0.13500
H1346       H  0.81494053  0.50481903  0.99844910     0.13500
H1347       H  0.81496531  0.51147459  0.55316462     0.13500
H1348       H  0.00095557  0.59928114  0.50000384     0.26700
H1349       H  0.00010320  0.60522885  0.55255129     0.26700
N1350       N  0.65124882  0.65063445  0.56729046    -0.36000
N1351       N  0.61130816  0.68497930  0.52522660    -0.56600
N1352       N  0.65055428  0.64755718  0.98385504    -0.36000
N1353       N  0.68578447  0.60853311  0.52622890    -0.56600
C1354       C  0.64839954  0.68810530  0.58006401     0.27600
C1355       C  0.68597482  0.64448359  0.58090359     0.27600
C1356       C  0.64384487  0.68170128  0.96986841     0.27600
C1357       C  0.68717376  0.64362313  0.97072924     0.27600
C1358       C  0.58930369  0.69174016  0.54769528     0.36200
C1359       C  0.58602872  0.68675843  0.50286123     0.36200
C1360       C  0.68867469  0.58433235  0.54880492     0.36200
C1361       C  0.69306200  0.58655099  0.50395785     0.36200
C1362       C  0.68261243  0.70699226  0.60173441    -0.21300
C1363       C  0.70656603  0.67925809  0.60226012    -0.21300
C1364       C  0.67711947  0.70045678  0.94775534    -0.21300
C1365       C  0.70458010  0.67619531  0.94827558    -0.21300
C1366       C  0.54873347  0.69681768  0.53971387    -0.22400
C1367       C  0.54657566  0.69354667  0.51116410    -0.22400
C1368       C  0.69644281  0.54533184  0.54082258    -0.22400
C1369       C  0.69951984  0.54694358  0.51225906    -0.22400
C1370       C  0.61068899  0.70002444  0.57444777    -0.17700
C1371       C  0.69488100  0.60457602  0.57579082    -0.17700
C1372       C  0.70052456  0.60707731  0.97708412    -0.17700
C1373       C  0.60512622  0.69226356  0.97565395    -0.17700
H1374       H  0.68821391  0.73623212  0.61623921     0.15200
H1375       H  0.73457534  0.68304378  0.61717920     0.15200
H1376       H  0.68033996  0.72773068  0.93248411     0.15200
H1377       H  0.73303709  0.68089853  0.93342918     0.15200
H1378       H  0.52481929  0.70442084  0.55289563     0.13500
H1379       H  0.52095567  0.69861733  0.99802608     0.13500
H1380       H  0.70268883  0.52068519  0.55418844     0.13500
H1381       H  0.70780319  0.52322881  0.99928872     0.13500
H1382       H  0.62579339  0.62568844  0.55275008     0.26700
H1383       H  0.62681591  0.62356983  0.49920332     0.26700
C1384       C  0.53736586  0.65352278  0.71470934     0.43000
N1385       N  0.55542301  0.60966393  0.74244871     0.01900
C1386       C  0.43972151  0.34602502  0.73965756    -0.05900
H1387       H  0.31320340  0.41261483  0.74943273     0.07400
C1388       C  0.40352599  0.49963411  0.84182501    -0.06300
Co1389     Co  0.50149170  0.50011418  0.72608854     0.74200
N1390       N  0.39387036  0.44842760  0.74543445    -0.25500
Co1391     Co  0.42079903  0.42071450  0.77678006     0.74100
C1392       C  0.34984481  0.46670659  0.83572457     0.43100
N1393       N  0.52489520  0.58240423  0.82283105     0.01500
N1394       N  0.39522445  0.45079280  0.80765853     0.01700
N1395       N  0.49518157  0.40163984  0.70947840    -0.46300
H1396       H  0.48070864  0.58267123  0.69106167     0.07400
N1397       N  0.42555909  0.47979321  0.72690542     0.01900
N1398       N  0.45082140  0.39628251  0.80798886     0.01700
C1399       C  0.46831198  0.35175246  0.83564199     0.43300
N1400       N  0.55712169  0.61315619  0.80423939    -0.24900
C1401       C  0.60241901  0.50504920  0.70977279    -0.05900
N1402       N  0.56679102  0.65647085  0.73641774    -0.46000
N1403       N  0.43930080  0.34936850  0.81385086    -0.46300
C1404       C  0.65595147  0.53686657  0.71650355     0.43100
N1405       N  0.48098780  0.42422999  0.72759738     0.01900
N1406       N  0.61247630  0.55881541  0.80532964    -0.25000
N1407       N  0.52141229  0.57615664  0.72556049    -0.25400
N1408       N  0.58118217  0.52679662  0.82379406     0.01600
H1409       H  0.69347064  0.59809787  0.80175054     0.07500
H1410       H  0.52526059  0.42256683  0.85946643     0.07500
N1411       N  0.44884585  0.39279802  0.74593200    -0.25500
N1412       N  0.42823241  0.48546605  0.82449830    -0.25100
N1413       N  0.61073541  0.55480385  0.74340393     0.01900
C1414       C  0.35387451  0.47144947  0.71463121     0.43300
C1415       C  0.56769647  0.66037007  0.81004091    -0.06400
N1416       N  0.48480387  0.42964030  0.82500276    -0.25100
H1417       H  0.42045510  0.52524565  0.85905571     0.07500
N1418       N  0.40337972  0.49420927  0.70862347    -0.46300
H1419       H  0.59565082  0.69403138  0.79957660     0.07500
C1420       C  0.65424957  0.53968805  0.83670333     0.43200
C1421       C  0.50613624  0.59993631  0.70830692    -0.05900
Co1422     Co  0.58517584  0.58534502  0.77381498     0.73800
N1423       N  0.51166390  0.60620004  0.84083223    -0.46000
C1424       C  0.47139669  0.35199985  0.71521169     0.43400
N1425       N  0.65784303  0.56650577  0.73787395    -0.46000
Co1426     Co  0.50471942  0.50604427  0.82465466     0.73900
C1427       C  0.49984428  0.40546943  0.84217536    -0.06400
C1428       C  0.34742728  0.43999465  0.73920019    -0.05900
N1429       N  0.57781680  0.52025369  0.72649430    -0.25500
N1430       N  0.34800262  0.43786170  0.81391499    -0.46200
H1431       H  0.41197843  0.31185732  0.74979895     0.07400
C1432       C  0.65957832  0.56988547  0.81191761    -0.06300
Cl1433     Cl  0.50302228  0.50303354  0.77536387    -0.49300
C1434       C  0.53765062  0.65590622  0.83467009     0.43200
H1435       H  0.58583136  0.47964191  0.69244769     0.07400
N1436       N  0.60441015  0.51388011  0.84232891    -0.46100
C1437       C  0.34524429  0.88128765  0.71595122     0.43000
N1438       N  0.39015777  0.94391048  0.74322266     0.01900
C1439       C  0.65329846  0.09285539  0.73933685    -0.05900
H1440       H  0.58775370  0.89910166  0.74996130     0.07400
C1441       C  0.50077986  0.90590168  0.84260346    -0.06300
Co1442     Co  0.49939340  0.99845945  0.72624625     0.74200
N1443       N  0.55149662  0.94362540  0.74620354    -0.25500
Co1444     Co  0.57972241  0.99973865  0.77694173     0.74100
C1445       C  0.53267594  0.88409219  0.83649575     0.43100
N1446       N  0.41969435  0.94530203  0.82354130     0.01500
N1447       N  0.54978868  0.94545125  0.80833360     0.01700
N1448       N  0.59714008  0.09064873  0.70887451    -0.46300
H1449       H  0.41554961  0.89360890  0.69253729     0.07400
N1450       N  0.51941998  0.94305505  0.72792297     0.01900
N1451       N  0.60495912  0.05546492  0.80754689     0.01700
C1452       C  0.65017483  0.11679981  0.83543768     0.43300
N1453       N  0.38822518  0.94576412  0.80515526    -0.24900
C1454       C  0.49582346  0.09420894  0.70846855    -0.05900
N1455       N  0.34307077  0.90877558  0.73735984    -0.46000
N1456       N  0.65212605  0.08989827  0.81368145    -0.46300
C1457       C  0.46458984  0.11657100  0.71450615     0.43100
N1458       N  0.57517181  0.05395014  0.72710435     0.01900
N1459       N  0.44362504  0.05596822  0.80404054    -0.25000
N1460       N  0.42320711  0.94222793  0.72651765    -0.25400
N1461       N  0.47588096  0.05750345  0.82257901     0.01600
H1462       H  0.40595703  0.09900044  0.79919143     0.07500
H1463       H  0.57987551  0.10457789  0.85900538     0.07500
N1464       N  0.60692327  0.05444334  0.74557764    -0.25500
N1465       N  0.51569801  0.94482622  0.82519950    -0.25100
N1466       N  0.44563529  0.05421801  0.74222919     0.01900
C1467       C  0.52819701  0.88015097  0.71549307     0.43300
C1468       C  0.34136381  0.90874822  0.81159885    -0.06400
N1469       N  0.57201911  0.05716311  0.82436157    -0.25100
H1470       H  0.47499868  0.89746535  0.85971412     0.07500
N1471       N  0.50477318  0.90619059  0.70983904    -0.46300
H1472       H  0.30727054  0.90219704  0.80136325     0.07500
C1473       C  0.46401838  0.11886836  0.83425124     0.43200
C1474       C  0.39876508  0.90251690  0.70969063    -0.05900
Co1475     Co  0.41556713  0.99994277  0.77363780     0.73800
N1476       N  0.39697903  0.90851317  0.84178150    -0.46000
C1477       C  0.64659743  0.11777215  0.71478214     0.43400
N1478       N  0.43464883  0.08985665  0.73606019    -0.46000
Co1479     Co  0.49582784  0.00124295  0.82454901     0.73900
C1480       C  0.59667486  0.09610534  0.84165048    -0.06400
C1481       C  0.56017307  0.90575431  0.73988614    -0.05900
N1482       N  0.47988233  0.05479626  0.72556702    -0.25500
N1483       N  0.56165659  0.91048224  0.81460330    -0.46200
H1484       H  0.68759336  0.10016745  0.74961655     0.07400
C1485       C  0.43360571  0.09301626  0.80972646    -0.06300
Cl1486     Cl  0.49764281  0.99982222  0.77537394    -0.49300
C1487       C  0.34719846  0.88373710  0.83620743     0.43200
H1488       H  0.52184745  0.10274421  0.69152146     0.07400
N1489       N  0.48971461  0.09496131  0.84038237    -0.46100
C1490       C  0.88247622  0.34413252  0.83601316     0.43000
N1491       N  0.94457260  0.38953682  0.80861967     0.01900
C1492       C  0.09401702  0.65241247  0.81310947    -0.05900
H1493       H  0.89866324  0.58540758  0.80184961     0.07400
C1494       C  0.90591995  0.50026485  0.70989175    -0.06300
Co1495     Co  0.99929281  0.49844921  0.82612174     0.74200
N1496       N  0.94412699  0.55040809  0.80629373    -0.25500
Co1497     Co  0.00007012  0.57919790  0.77556370     0.74100
C1498       C  0.88429322  0.53225331  0.71584801     0.43100
N1499       N  0.94502319  0.41936539  0.72857274     0.01500
N1500       N  0.94541539  0.54934780  0.74419994     0.01700
N1501       N  0.09148063  0.59610264  0.84362558    -0.46300
H1502       H  0.89559895  0.41387895  0.86035834     0.07400
N1503       N  0.94375082  0.51852772  0.82465709     0.01900
N1504       N  0.05545351  0.60480041  0.74472152     0.01700
C1505       C  0.11653882  0.64962650  0.71655787     0.43300
N1506       N  0.94560933  0.38767804  0.74673298    -0.24900
C1507       C  0.09461860  0.49315153  0.84359006    -0.05900
N1508       N  0.90949191  0.34237490  0.81427216    -0.46000
N1509       N  0.08974480  0.65193819  0.73831170    -0.46300
C1510       C  0.11661680  0.46171026  0.83685881     0.43100
N1511       N  0.05467805  0.57431245  0.82541097     0.01900
N1512       N  0.05559592  0.44295187  0.74735011    -0.25000
N1513       N  0.94323497  0.42227739  0.82573171    -0.25400
N1514       N  0.05696433  0.47569759  0.72926172     0.01600
H1515       H  0.09739120  0.40388184  0.75062187     0.07500
H1516       H  0.10458511  0.57897250  0.69358271     0.07500
N1517       N  0.05519769  0.60616413  0.80695196    -0.25500
N1518       N  0.94468746  0.51519230  0.72737186    -0.25100
N1519       N  0.05473613  0.44474300  0.80919106     0.01900
C1520       C  0.87959042  0.52586462  0.83633356     0.43300
C1521       C  0.90892074  0.34080959  0.73998260    -0.06400
N1522       N  0.05701054  0.57167836  0.72801075    -0.25100
H1523       H  0.89773770  0.47466787  0.69271913     0.07500
N1524       N  0.90632972  0.50326464  0.84245057    -0.46300
H1525       H  0.90292216  0.30662025  0.74985743     0.07500
C1526       C  0.11796622  0.46414495  0.71654479     0.43200
C1527       C  0.90397780  0.39748818  0.84280929    -0.05900
Co1528     Co  0.00011409  0.41494801  0.77802412     0.73800
N1529       N  0.90843388  0.39679631  0.71022763    -0.46000
C1530       C  0.11901178  0.64550206  0.83757970     0.43400
N1531       N  0.08992056  0.43297025  0.81499564    -0.46000
Co1532     Co  0.00095759  0.49552336  0.72776405     0.73900
C1533       C  0.09595831  0.59606452  0.71072338    -0.06400
C1534       C  0.90552744  0.55814366  0.81213186    -0.05900
N1535       N  0.05556489  0.47856725  0.82632658    -0.25500
N1536       N  0.91054923  0.56129717  0.73778376    -0.46200
H1537       H  0.10197227  0.68679089  0.80267615     0.07400
C1538       C  0.09214328  0.43261508  0.74085756    -0.06300
Cl1539     Cl  0.00013118  0.49708698  0.77686401    -0.49300
C1540       C  0.88382246  0.34690742  0.71545000     0.43200
H1541       H  0.10277595  0.51794529  0.86111405     0.07400
N1542       N  0.09398375  0.48989241  0.71121021    -0.46100
loop_ 
_geom_bond_atom_site_label_1 
_geom_bond_atom_site_label_2 
_geom_bond_distance 
_geom_bond_site_symmetry_2 
_ccdc_geom_bond_type 
N1            C6   1.350       .  A
N1            C5   1.348       .  A
N1           H33   1.041       .  S
N2            C9   1.357       .  A
N2           C10   1.355       .  A
N3            C8   1.361       .  A
N3            C7   1.358       .  A
N3           H34   1.035       .  S
N4           C11   1.353       .  A
N4           C12   1.352       .  A
C5           C13   1.387       .  A
C5           C21   1.406       .  A
C6           C22   1.406       .  A
C6           C14   1.387       .  A
C7           C15   1.387       .  A
C7           C24   1.429       .  A
C8           C23   1.432       .  A
C8           C16   1.389       .  A
C9           C21   1.418       .  A
C9           C17   1.382       .  A
C10          C24   1.429       .  A
C10          C18   1.392       .  A
C11          C19   1.376       .  A
C11          C22   1.405       .  A
C12          C20   1.397       .  A
C12          C23   1.431       .  A
C13          C14   1.371       .  A
C13          H25   1.082       .  S
C14          H26   1.082       .  S
C15          C16   1.381       .  A
C15          H27   1.082       .  S
C16          H28   1.080       .  S
C17          C18   1.364       .  A
C17          H29   1.081       .  S
C18          H30   1.078       .  S
C19          C20   1.368       .  A
C19          H31   1.083       .  S
C20          H32   1.076       .  S
C21         C599   1.496       .  S
C22         C157   1.493       .  S
C23         C696   1.509       .  S
C24         C613   1.499       .  S
N35          C40   1.350       .  A
N35          C39   1.350       .  A
N35          H67   1.042       .  S
N36          C43   1.355       .  A
N36          C44   1.354       .  A
N37          C42   1.363       .  A
N37          C41   1.364       .  A
N37          H68   1.035       .  S
N38          C45   1.355       .  A
N38          C46   1.352       .  A
C39          C47   1.386       .  A
C39          C55   1.403       .  A
C40          C56   1.405       .  A
C40          C48   1.387       .  A
C41          C49   1.387       .  A
C41          C58   1.434       .  A
C42          C57   1.436       .  A
C42          C50   1.389       .  A
C43          C55   1.414       .  A
C43          C51   1.382       .  A
C44          C58   1.428       .  A
C44          C52   1.391       .  A
C45          C53   1.381       .  A
C45          C56   1.414       .  A
C46          C54   1.394       .  A
C46          C57   1.430       .  A
C47          C48   1.364       .  A
C47          H59   1.082       .  S
C48          H60   1.082       .  S
C49          C50   1.380       .  A
C49          H61   1.082       .  S
C50          H62   1.082       .  S
C51          C52   1.362       .  A
C51          H63   1.082       .  S
C52          H64   1.079       .  S
C53          C54   1.365       .  A
C53          H65   1.082       .  S
C54          H66   1.078       .  S
C55         C160   1.493       .  S
C56         C602   1.496       .  S
C57         C663   1.503       .  S
C58         C674   1.506       .  S
N69          C74   1.350       .  A
N69          C73   1.349       .  A
N69         H101   1.042       .  S
N70          C77   1.355       .  A
N70          C78   1.353       .  A
N71          C76   1.360       .  A
N71          C75   1.362       .  A
N71         H102   1.036       .  S
N72          C79   1.357       .  A
N72          C80   1.354       .  A
C73          C81   1.388       .  A
C73          C89   1.404       .  A
C74          C90   1.403       .  A
C74          C82   1.387       .  A
C75          C83   1.388       .  A
C75          C92   1.429       .  A
C76          C91   1.429       .  A
C76          C84   1.388       .  A
C77          C89   1.415       .  A
C77          C85   1.383       .  A
C78          C92   1.425       .  A
C78          C86   1.391       .  A
C79          C87   1.382       .  A
C79          C90   1.416       .  A
C80          C88   1.391       .  A
C80          C91   1.428       .  A
C81          C82   1.363       .  A
C81          H93   1.082       .  S
C82          H94   1.082       .  S
C83          C84   1.377       .  A
C83          H95   1.082       .  S
C84          H96   1.082       .  S
C85          C86   1.363       .  A
C85          H97   1.081       .  S
C86          H98   1.079       .  S
C87          C88   1.364       .  A
C87          H99   1.081       .  S
C88         H100   1.079       .  S
C89         C497   1.493       .  S
C90         C159   1.496       .  S
C91         C681   1.499       .  S
C92         C719   1.498       .  S
N103        C108   1.349       .  A
N103        C107   1.345       .  A
N103        H135   1.042       .  S
N104        C111   1.354       .  A
N104        C112   1.355       .  A
N105        C110   1.361       .  A
N105        C109   1.361       .  A
N105        H136   1.037       .  S
N106        C113   1.355       .  A
N106        C114   1.351       .  A
C107        C115   1.388       .  A
C107        C123   1.404       .  A
C108        C124   1.404       .  A
C108        C116   1.386       .  A
C109        C117   1.388       .  A
C109        C126   1.434       .  A
C110        C125   1.433       .  A
C110        C118   1.388       .  A
C111        C123   1.412       .  A
C111        C119   1.378       .  A
C112        C126   1.432       .  A
C112        C120   1.397       .  A
C113        C121   1.375       .  A
C113        C124   1.407       .  A
C114        C122   1.397       .  A
C114        C125   1.430       .  A
C115        C116   1.374       .  A
C115        H127   1.082       .  S
C116        H128   1.082       .  S
C117        C118   1.380       .  A
C117        H129   1.080       .  S
C118        H130   1.079       .  S
C119        C120   1.365       .  A
C119        H131   1.083       .  S
C120        H132   1.075       .  S
C121        C122   1.370       .  A
C121        H133   1.083       .  S
C122        H134   1.076       .  S
C123        C500   1.491       .  S
C124        C158   1.497       .  S
C125        C706   1.508       .  S
C126        C769   1.507       .  S
N137        C142   1.354   1_565  A
N137        C141   1.354       .  A
N137        H169   1.042       .  S
N138        C145   1.345       .  A
N138        C146   1.348       .  A
N139        C144   1.346   1_565  A
N139        C143   1.346       .  A
N139        H941   1.044       .  S
N140        C147   1.347       .  A
N140        C148   1.350       .  A
C141        C149   1.387       .  A
C141        C157   1.415       .  A
C142        C158   1.415       .  A
C142        C150   1.387       .  A
C143        C151   1.387       .  A
C143        C160   1.404       .  A
C144        C159   1.404       .  A
C144        C152   1.387       .  A
C145        C157   1.410       .  A
C145        C153   1.388       .  A
C146        C154   1.386       .  A
C146        C931   1.410   1_554  A
C147        C155   1.387       .  A
C147        C158   1.413       .  A
C148        C156   1.386       .  A
C148        C930   1.415   1_554  A
C149        C150   1.373   1_565  A
C149        H161   1.082       .  S
C150        H162   1.082       .  S
C151        C152   1.374   1_565  A
C151        H163   1.082       .  S
C152        H164   1.082       .  S
C153        C154   1.378       .  A
C153        H165   1.082       .  S
C154        H937   1.082   1_554  S
C155        C156   1.380       .  A
C155        H167   1.082       .  S
C156        H939   1.082   1_554  S
C159        C919   1.415       .  A
C160        C917   1.410       .  A
H166        C925   1.082       .  S
H168        C927   1.082       .  S
H170        N910   1.044       .  S
N171        C176   1.346       .  A
N171        C175   1.349       .  A
N171        H203   1.042       .  S
N172        C179   1.354       .  A
N172        C180   1.350       .  A
N173        C178   1.360       .  A
N173        C177   1.360       .  A
N173        H204   1.037       .  S
N174        C181   1.356       .  A
N174        C182   1.356       .  A
C175        C183   1.386       .  A
C175        C191   1.406       .  A
C176        C192   1.405       .  A
C176        C184   1.387       .  A
C177        C185   1.387       .  A
C177        C194   1.432       .  A
C178        C193   1.434       .  A
C178        C186   1.388       .  A
C179        C191   1.406       .  A
C179        C187   1.376       .  A
C180        C194   1.427       .  A
C180        C188   1.396       .  A
C181        C189   1.379       .  A
C181        C192   1.415       .  A
C182        C190   1.395       .  A
C182        C193   1.432       .  A
C183        C184   1.374       .  A
C183        H195   1.082       .  S
C184        H196   1.082       .  S
C185        C186   1.381       .  A
C185        H197   1.080       .  S
C186        H198   1.080       .  S
C187        C188   1.371       .  A
C187        H199   1.083       .  S
C188        H200   1.077       .  S
C189        C190   1.365       .  A
C189        H201   1.082       .  S
C190        H202   1.076       .  S
C191        C566   1.497       .  S
C192        C601   1.494       .  S
C193        C649   1.505       .  S
C194        C749   1.508       .  S
N205        C210   1.348       .  A
N205        C209   1.350       .  A
N205        H237   1.042       .  S
N206        C213   1.358       .  A
N206        C214   1.355       .  A
N207        C212   1.364       .  A
N207        C211   1.362       .  A
N207        H238   1.035       .  S
N208        C215   1.355       .  A
N208        C216   1.353       .  A
C209        C217   1.386       .  A
C209        C225   1.402       .  A
C210        C226   1.404       .  A
C210        C218   1.388       .  A
C211        C219   1.389       .  A
C211        C228   1.434       .  A
C212        C227   1.433       .  A
C212        C220   1.388       .  A
C213        C225   1.417       .  A
C213        C221   1.381       .  A
C214        C228   1.431       .  A
C214        C222   1.392       .  A
C215        C223   1.383       .  A
C215        C226   1.415       .  A
C216        C224   1.392       .  A
C216        C227   1.427       .  A
C217        C218   1.362       .  A
C217        H229   1.082       .  S
C218        H230   1.082       .  S
C219        C220   1.380       .  A
C219        H231   1.082       .  S
C220        H232   1.082       .  S
C221        C222   1.364       .  A
C221        H233   1.081       .  S
C222        H234   1.078       .  S
C223        C224   1.365       .  A
C223        H235   1.081       .  S
C224        H236   1.079       .  S
C225        C567   1.498       .  S
C226        C600   1.492       .  S
C227        C633   1.504       .  S
C228        C727   1.504       .  S
N239        C244   1.349       .  A
N239        C243   1.349       .  A
N239        H271   1.042       .  S
N240        C247   1.355       .  A
N240        C248   1.353       .  A
N241        C246   1.361       .  A
N241        C245   1.362       .  A
N241        H272   1.034       .  S
N242        C249   1.356       .  A
N242        C250   1.354       .  A
C243        C251   1.388       .  A
C243        C259   1.404       .  A
C244        C260   1.402       .  A
C244        C252   1.387       .  A
C245        C253   1.388       .  A
C245        C262   1.432       .  A
C246        C261   1.432       .  A
C246        C254   1.388       .  A
C247        C259   1.415       .  A
C247        C255   1.381       .  A
C248        C262   1.429       .  A
C248        C256   1.393       .  A
C249        C257   1.382       .  A
C249        C260   1.416       .  A
C250        C258   1.392       .  A
C250        C261   1.430       .  A
C251        C252   1.363       .  A
C251        H263   1.082       .  S
C252        H264   1.082       .  S
C253        C254   1.379       .  A
C253        H265   1.082       .  S
C254        H266   1.082       .  S
C255        C256   1.365       .  A
C255        H267   1.082       .  S
C256        H268   1.079       .  S
C257        C258   1.364       .  A
C257        H269   1.082       .  S
C258        H270   1.079       .  S
C259        C532   1.494       .  S
C260        C568   1.494       .  S
C261        C734   1.502       .  S
C262        C666   1.501       .  S
N273        C278   1.349       .  A
N273        C277   1.345       .  A
N273        H305   1.042       .  S
N274        C281   1.355       .  A
N274        C282   1.355       .  A
N275        C280   1.361       .  A
N275        C279   1.359       .  A
N275        H306   1.036       .  S
N276        C283   1.353       .  A
N276        C284   1.350       .  A
C277        C285   1.388       .  A
C277        C293   1.405       .  A
C278        C294   1.406       .  A
C278        C286   1.387       .  A
C279        C287   1.388       .  A
C279        C296   1.433       .  A
C280        C295   1.432       .  A
C280        C288   1.387       .  A
C281        C293   1.414       .  A
C281        C289   1.379       .  A
C282        C296   1.433       .  A
C282        C290   1.396       .  A
C283        C291   1.377       .  A
C283        C294   1.405       .  A
C284        C292   1.395       .  A
C284        C295   1.426       .  A
C285        C286   1.375       .  A
C285        H297   1.082       .  S
C286        H298   1.082       .  S
C287        C288   1.381       .  A
C287        H299   1.080       .  S
C288        H300   1.080       .  S
C289        C290   1.365       .  A
C289        H301   1.082       .  S
C290        H302   1.075       .  S
C291        C292   1.371       .  A
C291        H303   1.083       .  S
C292        H304   1.077       .  S
C293        C533   1.492       .  S
C294        C565   1.495       .  S
C295        C759   1.509       .  S
C296        C716   1.504       .  S
N307        C312   1.348       .  A
N307        C311   1.346       .  A
N307        H339   1.041       .  S
N308        C315   1.357       .  A
N308        C316   1.355       .  A
N309        C314   1.363       .  A
N309        C313   1.360       .  A
N309        H340   1.036       .  S
N310        C317   1.354       .  A
N310        C318   1.352       .  A
C311        C319   1.388       .  A
C311        C327   1.403       .  A
C312        C328   1.403       .  A
C312        C320   1.387       .  A
C313        C321   1.387       .  A
C313        C330   1.432       .  A
C314        C329   1.435       .  A
C314        C322   1.389       .  A
C315        C327   1.417       .  A
C315        C323   1.381       .  A
C316        C330   1.431       .  A
C316        C324   1.394       .  A
C317        C325   1.376       .  A
C317        C328   1.406       .  A
C318        C326   1.397       .  A
C318        C329   1.430       .  A
C319        C320   1.371       .  A
C319        H331   1.082       .  S
C320        H332   1.082       .  S
C321        C322   1.383       .  A
C321        H333   1.082       .  S
C322        H334   1.080       .  S
C323        C324   1.364       .  A
C323        H335   1.082       .  S
C324        H336   1.077       .  S
C325        C326   1.369       .  A
C325        H337   1.083       .  S
C326        H338   1.076       .  S
C327        C531   1.493       .  S
C328        C395   1.492       .  S
C329        C653   1.513       .  S
C330        C686   1.502       .  S
N341        C346   1.351       .  A
N341        C345   1.351       .  A
N341        H373   1.042       .  S
N342        C349   1.356       .  A
N342        C350   1.354       .  A
N343        C348   1.363       .  A
N343        C347   1.363       .  A
N343        H374   1.036       .  S
N344        C351   1.357       .  A
N344        C352   1.354       .  A
C345        C353   1.387       .  A
C345        C361   1.407       .  A
C346        C362   1.405       .  A
C346        C354   1.386       .  A
C347        C355   1.389       .  A
C347        C364   1.435       .  A
C348        C363   1.433       .  A
C348        C356   1.388       .  A
C349        C361   1.415       .  A
C349        C357   1.380       .  A
C350        C364   1.430       .  A
C350        C358   1.394       .  A
C351        C359   1.383       .  A
C351        C362   1.418       .  A
C352        C360   1.391       .  A
C352        C363   1.428       .  A
C353        C354   1.363       .  A
C353        H365   1.082       .  S
C354        H366   1.082       .  S
C355        C356   1.380       .  A
C355        H367   1.082       .  S
C356        H368   1.082       .  S
C357        C358   1.363       .  A
C357        H369   1.082       .  S
C358        H370   1.077       .  S
C359        C360   1.363       .  A
C359        H371   1.081       .  S
C360        H372   1.079       .  S
C361        C534   1.499       .  S
C362        C398   1.499       .  S
C363        C628   1.504       .  S
C364        C702   1.504       .  S
N375        C380   1.353       .  A
N375        C379   1.352       .  A
N375        H407   1.042       .  S
N376        C383   1.347       .  A
N376        C384   1.351       .  A
N377        C382   1.345       .  A
N377        C381   1.347       .  A
N377       H1179   1.044       .  S
N378        C385   1.347       .  A
N378        C386   1.349       .  A
C379        C387   1.388       .  A
C379        C395   1.414       .  A
C380        C396   1.413       .  A
C380        C388   1.387       .  A
C381        C389   1.387       .  A
C381        C398   1.404       .  A
C382        C397   1.403       .  A
C382        C390   1.387       .  A
C383        C395   1.413       .  A
C383        C391   1.387       .  A
C384        C392   1.386       .  A
C384       C1169   1.414   1_554  A
C385        C393   1.386       .  A
C385        C396   1.411       .  A
C386        C394   1.387       .  A
C386       C1168   1.414   1_554  A
C387        C388   1.373       .  A
C387        H399   1.082       .  S
C388        H400   1.082       .  S
C389        C390   1.373       .  A
C389        H401   1.082       .  S
C390        H402   1.082       .  S
C391        C392   1.379       .  A
C391        H403   1.082       .  S
C392       H1175   1.082   1_554  S
C393        C394   1.378       .  A
C393        H405   1.082       .  S
C394       H1177   1.082   1_554  S
C396        C463   1.492       .  S
C397       C1157   1.414       .  A
C397        C429   1.494       .  S
C398       C1155   1.414       .  A
H404       C1163   1.082       .  S
H406       C1165   1.082       .  S
H408       N1148   1.044       .  S
N409        C414   1.349       .  A
N409        C413   1.348       .  A
N409        H441   1.042       .  S
N410        C417   1.356       .  A
N410        C418   1.355       .  A
N411        C416   1.363       .  A
N411        C415   1.364       .  A
N411        H442   1.035       .  S
N412        C419   1.356       .  A
N412        C420   1.353       .  A
C413        C421   1.387       .  A
C413        C429   1.402       .  A
C414        C430   1.402       .  A
C414        C422   1.387       .  A
C415        C423   1.388       .  A
C415        C432   1.435       .  A
C416        C431   1.434       .  A
C416        C424   1.388       .  A
C417        C429   1.417       .  A
C417        C425   1.382       .  A
C418        C432   1.430       .  A
C418        C426   1.391       .  A
C419        C427   1.382       .  A
C419        C430   1.416       .  A
C420        C428   1.392       .  A
C420        C431   1.428       .  A
C421        C422   1.362       .  A
C421        H433   1.082       .  S
C422        H434   1.082       .  S
C423        C424   1.380       .  A
C423        H435   1.082       .  S
C424        H436   1.082       .  S
C425        C426   1.364       .  A
C425        H437   1.081       .  S
C426        H438   1.079       .  S
C427        C428   1.364       .  A
C427        H439   1.081       .  S
C428        H440   1.079       .  S
C430        C498   1.494       .  S
C431        C739   1.502       .  S
C432        C621   1.509       .  S
N443        C448   1.346       .  A
N443        C447   1.347       .  A
N443        H475   1.042       .  S
N444        C451   1.353       .  A
N444        C452   1.351       .  A
N445        C450   1.360       .  A
N445        C449   1.362       .  A
N445        H476   1.038       .  S
N446        C453   1.356       .  A
N446        C454   1.354       .  A
C447        C455   1.387       .  A
C447        C463   1.405       .  A
C448        C464   1.404       .  A
C448        C456   1.387       .  A
C449        C457   1.388       .  A
C449        C466   1.433       .  A
C450        C465   1.433       .  A
C450        C458   1.388       .  A
C451        C463   1.406       .  A
C451        C459   1.377       .  A
C452        C466   1.427       .  A
C452        C460   1.396       .  A
C453        C461   1.377       .  A
C453        C464   1.412       .  A
C454        C462   1.398       .  A
C454        C465   1.432       .  A
C455        C456   1.375       .  A
C455        H467   1.082       .  S
C456        H468   1.082       .  S
C457        C458   1.380       .  A
C457        H469   1.079       .  S
C458        H470   1.080       .  S
C459        C460   1.371       .  A
C459        H471   1.083       .  S
C460        H472   1.077       .  S
C461        C462   1.366       .  A
C461        H473   1.082       .  S
C462        H474   1.075       .  S
C464        C499   1.494       .  S
C465        C755   1.504       .  S
C466        C643   1.509       .  S
N477        C482   1.344   1_655  A
N477        C481   1.345       .  A
N477       H1280   1.044       .  S
N478        C485   1.348       .  A
N478        C486   1.345       .  A
N479        C484   1.350   1_655  A
N479        C483   1.349       .  A
N479        H510   1.042       .  S
N480        C487   1.348       .  A
N480        C488   1.347       .  A
C481        C489   1.387       .  A
C481        C497   1.402       .  A
C482        C498   1.402       .  A
C482        C490   1.387       .  A
C483        C491   1.387       .  A
C483        C500   1.411       .  A
C484        C499   1.411       .  A
C484        C492   1.387       .  A
C485        C493   1.386       .  A
C485       C1268   1.412   1_554  A
C486        C500   1.411       .  A
C486        C494   1.387       .  A
C487        C495   1.387       .  A
C487       C1269   1.414   1_554  A
C488        C496   1.387       .  A
C488        C499   1.412       .  A
C489        C490   1.375   1_655  A
C489        H501   1.082       .  S
C490        H502   1.082       .  S
C491        C492   1.376   1_655  A
C491        H503   1.082       .  S
C492        H504   1.082       .  S
C493        C494   1.380       .  A
C493       H1276   1.082   1_554  S
C494        H506   1.082       .  S
C495        C496   1.380       .  A
C495       H1278   1.082   1_554  S
C496        H508   1.082       .  S
C497       C1256   1.412       .  A
C498       C1258   1.414       .  A
H505       C1264   1.082       .  S
H507       C1266   1.082       .  S
H509       N1248   1.044       .  S
N511        C516   1.345       .  A
N511        C515   1.346   1_565  A
N511        H543   1.044       .  S
N512        C519   1.348       .  A
N512        C520   1.348       .  A
N513        C518   1.348       .  A
N513        C517   1.348   1_565  A
N513       H1315   1.043       .  S
N514        C521   1.347       .  A
N514        C522   1.346       .  A
C515        C523   1.387       .  A
C515        C531   1.405       .  A
C516        C532   1.405       .  A
C516        C524   1.387       .  A
C517        C525   1.387       .  A
C517        C534   1.410       .  A
C518        C533   1.408       .  A
C518        C526   1.387       .  A
C519        C531   1.413       .  A
C519        C527   1.386       .  A
C520        C528   1.387       .  A
C520       C1305   1.414   1_554  A
C521        C529   1.387       .  A
C521        C532   1.413       .  A
C522        C530   1.387       .  A
C522       C1304   1.411   1_554  A
C523        C524   1.377   1_545  A
C523        H535   1.082       .  S
C524        H536   1.082       .  S
C525        C526   1.377   1_545  A
C525        H537   1.082       .  S
C526        H538   1.082       .  S
C527        C528   1.381       .  A
C527        H539   1.082       .  S
C528       H1311   1.082   1_554  S
C529        C530   1.380       .  A
C529        H541   1.082       .  S
C530       H1313   1.082   1_554  S
C533       C1293   1.411       .  A
C534       C1291   1.414       .  A
H540       C1299   1.082       .  S
H542       C1301   1.082       .  S
H544       N1284   1.043       .  S
N545        C550   1.354   1_455  A
N545        C549   1.354       .  A
N545       H1348   1.042       .  S
N546        C553   1.347       .  A
N546        C554   1.350       .  A
N547        C552   1.346   1_455  A
N547        C551   1.346       .  A
N547        H578   1.043       .  S
N548        C555   1.348       .  A
N548        C556   1.351       .  A
C549        C557   1.387       .  A
C549        C565   1.416       .  A
C550        C566   1.416       .  A
C550        C558   1.387       .  A
C551        C559   1.387       .  A
C551        C568   1.404       .  A
C552        C567   1.404       .  A
C552        C560   1.387       .  A
C553        C561   1.387       .  A
C553       C1336   1.412   1_554  A
C554        C568   1.413       .  A
C554        C562   1.386       .  A
C555        C563   1.387       .  A
C555       C1337   1.414   1_554  A
C556        C564   1.386       .  A
C556        C567   1.415       .  A
C557        C558   1.373   1_455  A
C557        H569   1.082       .  S
C558        H570   1.082       .  S
C559        C560   1.373   1_455  A
C559        H571   1.082       .  S
C560        H572   1.082       .  S
C561        C562   1.378       .  A
C561       H1344   1.082   1_554  S
C562        H574   1.082       .  S
C563        C564   1.379       .  A
C563       H1346   1.082   1_554  S
C564        H576   1.082       .  S
C565       C1324   1.412       .  A
C566       C1326   1.414       .  A
H573       C1332   1.082       .  S
H575       C1334   1.082       .  S
H577       N1316   1.042   1_554  S
N579        C584   1.344       .  A
N579        C583   1.347       .  A
N579        H611   1.044       .  S
N580        C587   1.348       .  A
N580        C588   1.347       .  A
N581        C586   1.348       .  A
N581        C585   1.347       .  A
N581       H1383   1.043       .  S
N582        C589   1.347       .  A
N582        C590   1.346       .  A
C583        C591   1.387       .  A
C583        C599   1.405       .  A
C584        C600   1.405       .  A
C584        C592   1.388       .  A
C585        C593   1.387       .  A
C585        C602   1.409       .  A
C586        C601   1.408       .  A
C586        C594   1.387       .  A
C587        C599   1.413       .  A
C587        C595   1.386       .  A
C588        C596   1.388       .  A
C588       C1373   1.414   1_554  A
C589        C597   1.388       .  A
C589        C600   1.414       .  A
C590        C598   1.386       .  A
C590       C1372   1.412   1_554  A
C591        C592   1.377       .  A
C591        H603   1.082       .  S
C592        H604   1.082       .  S
C593        C594   1.378       .  A
C593        H605   1.082       .  S
C594        H606   1.082       .  S
C595        C596   1.381       .  A
C595        H607   1.082       .  S
C596       H1379   1.082   1_554  S
C597        C598   1.381       .  A
C597        H609   1.082       .  S
C598       H1381   1.082   1_554  S
C601       C1361   1.412       .  A
C602       C1359   1.414       .  A
H608       C1367   1.082       .  S
H610       C1369   1.082       .  S
H612       N1352   1.043       .  S
C613        N631   1.356       .  A
C613        C650   1.463       .  S
N614        N631   1.330       .  A
N614        N636   1.317       .  A
N614       Co651   2.090       .  S
C615        N640   1.353       .  A
C615        H660   1.081       .  S
C615        C653   1.481       .  S
H616        C657   1.081       .  S
C617        N641   1.340       .  A
C617        H646   1.082       .  S
C617        C621   1.468       .  S
Co618       N636   2.096       .  S
Co618       N626   2.090       .  S
Co618       N658   2.103       .  S
Co618       N634   2.088       .  S
Co618      Cl662   2.379       .  S
N619        C657   1.349       .  A
N619        N626   1.317       .  A
N619       Co620   2.098       .  S
Co620       N623   2.102       .  S
Co620       N640   2.106       .  S
Co620       N627   2.092       .  S
Co620      Cl662   2.523       .  S
C621        N659   1.359       .  A
N622        N629   1.318       .  A
N622        N652   1.324       .  A
N622       Co655   2.105       .  S
N623        N641   1.319       .  A
N623        N659   1.332       .  A
N624        C653   1.348       .  A
N624        N634   1.319       .  A
H625        C650   1.081       .  S
N626        N647   1.319       .  A
N627        N645   1.319       .  A
N627        N632   1.330       .  A
C628        N632   1.356       .  A
C628        C656   1.468       .  S
N629        C644   1.347       .  A
N629       Co651   2.090       .  S
C630        N658   1.340       .  A
C630        H664   1.081       .  S
C630        C633   1.467       .  S
C633        N654   1.358       .  A
N634        N640   1.316       .  A
N635        C661   1.347       .  A
N635        N637   1.317       .  A
N635       Co651   2.089       .  S
N636        C650   1.338       .  A
N637        N665   1.323       .  A
N637       Co655   2.102       .  S
H638        C661   1.081       .  S
H639        C656   1.082       .  S
N641       Co655   2.104       .  S
N642        N654   1.331       .  A
N642        N658   1.318       .  A
N642       Co651   2.095       .  S
C643        N647   1.348       .  A
C643        C657   1.478       .  S
C644        H648   1.082       .  S
C644        C663   1.468       .  S
N645        C656   1.340       .  A
N645       Co655   2.107       .  S
C649        N665   1.352       .  A
C649        C661   1.471       .  S
Co651      Cl662   2.522       .  S
N652        C663   1.354       .  A
Co655      Cl662   2.380       .  S
C666        N684   1.357       .  A
C666        C703   1.464       .  S
N667        N684   1.330       .  A
N667        N689   1.317       .  A
N667       Co704   2.092       .  S
C668        N693   1.351       .  A
C668        H713   1.081       .  S
C668        C706   1.480       .  S
H669        C710   1.081       .  S
C670        N694   1.340       .  A
C670        H699   1.082       .  S
C670        C674   1.468       .  S
Co671       N689   2.098       .  S
Co671       N679   2.081       .  S
Co671       N711   2.096   1_565  S
Co671       N687   2.083   1_565  S
Co671      Cl715   2.372       .  S
N672        C710   1.352       .  A
N672        N679   1.316       .  A
N672       Co673   2.103       .  S
Co673       N676   2.093       .  S
Co673       N693   2.098   1_565  S
Co673       N680   2.093   1_565  S
Co673      Cl715   2.523       .  S
C674        N712   1.357       .  A
N675        N682   1.317       .  A
N675        N705   1.322       .  A
N675       Co708   2.095   1_565  S
N676        N694   1.319       .  A
N676        N712   1.331       .  A
N677        C706   1.346       .  A
N677        N687   1.318       .  A
H678        C703   1.081       .  S
N679        N700   1.317       .  A
N680        N698   1.318       .  A
N680        N685   1.329       .  A
C681        N685   1.356       .  A
C681        C709   1.465       .  S
N682        C697   1.348       .  A
N682       Co704   2.094       .  S
C683        N711   1.338       .  A
C683        H717   1.080       .  S
C683        C686   1.462       .  S
C686        N707   1.358       .  A
N687        N693   1.316       .  A
N688        C714   1.348       .  A
N688        N690   1.318       .  A
N688       Co704   2.090   1_545  S
N689        C703   1.339       .  A
N690        N718   1.324       .  A
N690       Co708   2.105       .  S
H691        C714   1.082       .  S
H692        C709   1.082       .  S
N694       Co708   2.106   1_565  S
N695        N707   1.331       .  A
N695        N711   1.317       .  A
N695       Co704   2.093   1_545  S
C696        N700   1.345       .  A
C696        C710   1.481       .  S
C697        H701   1.081       .  S
C697        C716   1.473       .  S
N698        C709   1.338       .  A
N698       Co708   2.095       .  S
C702        N718   1.353       .  A
C702        C714   1.469       .  S
Co704      Cl715   2.524       .  S
N705        C716   1.349       .  A
Co708      Cl715   2.375   1_545  S
C719        N737   1.355       .  A
C719        C756   1.464       .  S
N720        N737   1.329       .  A
N720        N742   1.318       .  A
N720       Co757   2.089   1_655  S
C721        N746   1.352       .  A
C721        H766   1.081       .  S
C721        C759   1.481       .  S
H722        C763   1.081       .  S
C723        N747   1.338       .  A
C723        H752   1.082       .  S
C723        C727   1.464       .  S
Co724       N742   2.096       .  S
Co724       N732   2.086       .  S
Co724       N764   2.102   1_655  S
Co724       N740   2.084   1_655  S
Co724      Cl768   2.378   1_655  S
N725        C763   1.351       .  A
N725        N732   1.316       .  A
N725       Co726   2.100   1_655  S
Co726       N729   2.098   1_455  S
Co726       N746   2.107       .  S
Co726       N733   2.094       .  S
Co726      Cl768   2.523       .  S
C727        N765   1.358       .  A
N728        N735   1.316       .  A
N728        N758   1.321       .  A
N728       Co761   2.095   1_655  S
N729        N747   1.318       .  A
N729        N765   1.331       .  A
N730        C759   1.347       .  A
N730        N740   1.319       .  A
H731        C756   1.080       .  S
N732        N753   1.318       .  A
N733        N751   1.318       .  A
N733        N738   1.330       .  A
C734        N738   1.358       .  A
C734        C762   1.463       .  S
N735        C750   1.349       .  A
N735       Co757   2.092   1_655  S
C736        N764   1.339       .  A
C736        H770   1.080       .  S
C736        C739   1.466       .  S
C739        N760   1.356       .  A
N740        N746   1.317       .  A
N741        C767   1.348       .  A
N741        N743   1.316       .  A
N741       Co757   2.089       .  S
N742        C756   1.338       .  A
N743        N771   1.321       .  A
N743       Co761   2.094       .  S
H744        C767   1.081       .  S
H745        C762   1.082       .  S
N747       Co761   2.098   1_655  S
N748        N760   1.330       .  A
N748        N764   1.318       .  A
N748       Co757   2.091       .  S
C749        N753   1.347       .  A
C749        C763   1.479       .  S
C750        H754   1.081       .  S
C750        C769   1.475       .  S
N751        C762   1.337       .  A
N751       Co761   2.096       .  S
C755        N771   1.349       .  A
C755        C767   1.474       .  S
Co757      Cl768   2.523       .  S
N758        C769   1.349       .  A
Co761      Cl768   2.371       .  S
N772        C777   1.350       .  A
N772        C776   1.348       .  A
N772        H804   1.041       .  S
N773        C780   1.357       .  A
N773        C781   1.355       .  A
N774        C779   1.361       .  A
N774        C778   1.358       .  A
N774        H805   1.035       .  S
N775        C782   1.353       .  A
N775        C783   1.352       .  A
C776        C784   1.387       .  A
C776        C792   1.406       .  A
C777        C793   1.406       .  A
C777        C785   1.387       .  A
C778        C786   1.387       .  A
C778        C795   1.429       .  A
C779        C794   1.432       .  A
C779        C787   1.389       .  A
C780        C792   1.418       .  A
C780        C788   1.382       .  A
C781        C795   1.429       .  A
C781        C789   1.392       .  A
C782        C790   1.376       .  A
C782        C793   1.405       .  A
C783        C791   1.397       .  A
C783        C794   1.431       .  A
C784        C785   1.371       .  A
C784        H796   1.082       .  S
C785        H797   1.082       .  S
C786        C787   1.381       .  A
C786        H798   1.082       .  S
C787        H799   1.080       .  S
C788        C789   1.364       .  A
C788        H800   1.081       .  S
C789        H801   1.078       .  S
C790        C791   1.368       .  A
C790        H802   1.083       .  S
C791        H803   1.076       .  S
C792       C1370   1.496       .  S
C793        C928   1.493       .  S
C794       C1467   1.509       .  S
C795       C1384   1.499       .  S
N806        C811   1.350       .  A
N806        C810   1.350       .  A
N806        H838   1.042       .  S
N807        C814   1.355       .  A
N807        C815   1.354       .  A
N808        C813   1.363       .  A
N808        C812   1.364       .  A
N808        H839   1.034       .  S
N809        C816   1.355       .  A
N809        C817   1.352       .  A
C810        C818   1.386       .  A
C810        C826   1.403       .  A
C811        C827   1.405       .  A
C811        C819   1.387       .  A
C812        C820   1.387       .  A
C812        C829   1.434       .  A
C813        C828   1.436       .  A
C813        C821   1.389       .  A
C814        C826   1.414       .  A
C814        C822   1.382       .  A
C815        C829   1.428       .  A
C815        C823   1.391       .  A
C816        C824   1.381       .  A
C816        C827   1.414       .  A
C817        C825   1.394       .  A
C817        C828   1.430       .  A
C818        C819   1.364       .  A
C818        H830   1.082       .  S
C819        H831   1.082       .  S
C820        C821   1.380       .  A
C820        H832   1.082       .  S
C821        H833   1.082       .  S
C822        C823   1.362       .  A
C822        H834   1.082       .  S
C823        H835   1.078       .  S
C824        C825   1.365       .  A
C824        H836   1.082       .  S
C825        H837   1.078       .  S
C826        C931   1.493       .  S
C827       C1373   1.496       .  S
C828       C1434   1.503       .  S
C829       C1445   1.506       .  S
N840        C845   1.350       .  A
N840        C844   1.349       .  A
N840        H872   1.042       .  S
N841        C848   1.355       .  A
N841        C849   1.353       .  A
N842        C847   1.360       .  A
N842        C846   1.362       .  A
N842        H873   1.036       .  S
N843        C850   1.357       .  A
N843        C851   1.354       .  A
C844        C852   1.388       .  A
C844        C860   1.404       .  A
C845        C861   1.403       .  A
C845        C853   1.387       .  A
C846        C854   1.388       .  A
C846        C863   1.429       .  A
C847        C862   1.429       .  A
C847        C855   1.388       .  A
C848        C860   1.415       .  A
C848        C856   1.383       .  A
C849        C863   1.425       .  A
C849        C857   1.391       .  A
C850        C858   1.382       .  A
C850        C861   1.417       .  A
C851        C859   1.391       .  A
C851        C862   1.428       .  A
C852        C853   1.363       .  A
C852        H864   1.082       .  S
C853        H865   1.082       .  S
C854        C855   1.377       .  A
C854        H866   1.082       .  S
C855        H867   1.082       .  S
C856        C857   1.363       .  A
C856        H868   1.081       .  S
C857        H869   1.079       .  S
C858        C859   1.364       .  A
C858        H870   1.081       .  S
C859        H871   1.079       .  S
C860       C1268   1.493       .  S
C861        C930   1.496       .  S
C862       C1452   1.499       .  S
C863       C1490   1.498       .  S
N874        C879   1.349       .  A
N874        C878   1.345       .  A
N874        H906   1.042       .  S
N875        C882   1.354       .  A
N875        C883   1.355       .  A
N876        C881   1.361       .  A
N876        C880   1.361       .  A
N876        H907   1.037       .  S
N877        C884   1.355       .  A
N877        C885   1.351       .  A
C878        C886   1.388       .  A
C878        C894   1.404       .  A
C879        C895   1.404       .  A
C879        C887   1.386       .  A
C880        C888   1.388       .  A
C880        C897   1.434       .  A
C881        C896   1.433       .  A
C881        C889   1.388       .  A
C882        C894   1.412       .  A
C882        C890   1.378       .  A
C883        C897   1.432       .  A
C883        C891   1.397       .  A
C884        C892   1.375       .  A
C884        C895   1.406       .  A
C885        C893   1.397       .  A
C885        C896   1.430       .  A
C886        C887   1.374       .  A
C886        H898   1.082       .  S
C887        H899   1.082       .  S
C888        C889   1.380       .  A
C888        H900   1.080       .  S
C889        H901   1.079       .  S
C890        C891   1.365       .  A
C890        H902   1.083       .  S
C891        H903   1.075       .  S
C892        C893   1.370       .  A
C892        H904   1.083       .  S
C893        H905   1.076       .  S
C894       C1271   1.491       .  S
C895        C929   1.497       .  S
C896       C1477   1.508       .  S
C897       C1540   1.507       .  S
N908        C913   1.354   1_565  A
N908        C912   1.354       .  A
N908        H940   1.042       .  S
N909        C916   1.345       .  A
N909        C917   1.348       .  A
N910        C915   1.346   1_565  A
N910        C914   1.346       .  A
N911        C918   1.347       .  A
N911        C919   1.350       .  A
C912        C920   1.387       .  A
C912        C928   1.415       .  A
C913        C929   1.415       .  A
C913        C921   1.387       .  A
C914        C922   1.387       .  A
C914        C931   1.404       .  A
C915        C930   1.404       .  A
C915        C923   1.387       .  A
C916        C928   1.410       .  A
C916        C924   1.388       .  A
C917        C925   1.386       .  A
C918        C926   1.387       .  A
C918        C929   1.413       .  A
C919        C927   1.386       .  A
C920        C921   1.374   1_565  A
C920        H932   1.082       .  S
C921        H933   1.082       .  S
C922        C923   1.373   1_565  A
C922        H934   1.082       .  S
C923        H935   1.082       .  S
C924        C925   1.378       .  A
C924        H936   1.082       .  S
C926        C927   1.380       .  A
C926        H938   1.082       .  S
N942        C947   1.346       .  A
N942        C946   1.349       .  A
N942        H974   1.042       .  S
N943        C950   1.354       .  A
N943        C951   1.350       .  A
N944        C949   1.360       .  A
N944        C948   1.360       .  A
N944        H975   1.037       .  S
N945        C952   1.356       .  A
N945        C953   1.356       .  A
C946        C954   1.386       .  A
C946        C962   1.406       .  A
C947        C963   1.405       .  A
C947        C955   1.387       .  A
C948        C956   1.387       .  A
C948        C965   1.432       .  A
C949        C964   1.434       .  A
C949        C957   1.388       .  A
C950        C962   1.406       .  A
C950        C958   1.376       .  A
C951        C965   1.427       .  A
C951        C959   1.396       .  A
C952        C960   1.379       .  A
C952        C963   1.416       .  A
C953        C961   1.395       .  A
C953        C964   1.432       .  A
C954        C955   1.374       .  A
C954        H966   1.082       .  S
C955        H967   1.082       .  S
C956        C957   1.381       .  A
C956        H968   1.080       .  S
C957        H969   1.080       .  S
C958        C959   1.371       .  A
C958        H970   1.083       .  S
C959        H971   1.077       .  S
C960        C961   1.365       .  A
C960        H972   1.082       .  S
C961        H973   1.076       .  S
C962       C1337   1.497       .  S
C963       C1372   1.494       .  S
C964       C1420   1.505       .  S
C965       C1520   1.508       .  S
N976        C981   1.348       .  A
N976        C980   1.350       .  A
N976       H1008   1.042       .  S
N977        C984   1.358       .  A
N977        C985   1.355       .  A
N978        C983   1.364       .  A
N978        C982   1.362       .  A
N978       H1009   1.035       .  S
N979        C986   1.355       .  A
N979        C987   1.353       .  A
C980        C988   1.386       .  A
C980        C996   1.402       .  A
C981        C997   1.404       .  A
C981        C989   1.388       .  A
C982        C990   1.389       .  A
C982        C999   1.434       .  A
C983        C998   1.434       .  A
C983        C991   1.388       .  A
C984        C996   1.417       .  A
C984        C992   1.381       .  A
C985        C999   1.431       .  A
C985        C993   1.392       .  A
C986        C994   1.382       .  A
C986        C997   1.415       .  A
C987        C995   1.392       .  A
C987        C998   1.427       .  A
C988        C989   1.363       .  A
C988       H1000   1.082       .  S
C989       H1001   1.082       .  S
C990        C991   1.380       .  A
C990       H1002   1.082       .  S
C991       H1003   1.082       .  S
C992        C993   1.364       .  A
C992       H1004   1.082       .  S
C993       H1005   1.078       .  S
C994        C995   1.365       .  A
C994       H1006   1.081       .  S
C995       H1007   1.079       .  S
C996       C1338   1.498       .  S
C997       C1371   1.492       .  S
C998       C1404   1.504       .  S
C999       C1498   1.504       .  S
N1010      C1015   1.349       .  A
N1010      C1014   1.349       .  A
N1010      H1042   1.042       .  S
N1011      C1018   1.355       .  A
N1011      C1019   1.353       .  A
N1012      C1017   1.361       .  A
N1012      C1016   1.362       .  A
N1012      H1043   1.034       .  S
N1013      C1020   1.356       .  A
N1013      C1021   1.354       .  A
C1014      C1022   1.388       .  A
C1014      C1030   1.404       .  A
C1015      C1031   1.402       .  A
C1015      C1023   1.387       .  A
C1016      C1024   1.388       .  A
C1016      C1033   1.432       .  A
C1017      C1032   1.432       .  A
C1017      C1025   1.388       .  A
C1018      C1030   1.414       .  A
C1018      C1026   1.381       .  A
C1019      C1033   1.429       .  A
C1019      C1027   1.393       .  A
C1020      C1028   1.382       .  A
C1020      C1031   1.416       .  A
C1021      C1029   1.392       .  A
C1021      C1032   1.430       .  A
C1022      C1023   1.363       .  A
C1022      H1034   1.082       .  S
C1023      H1035   1.082       .  S
C1024      C1025   1.379       .  A
C1024      H1036   1.082       .  S
C1025      H1037   1.082       .  S
C1026      C1027   1.365       .  A
C1026      H1038   1.082       .  S
C1027      H1039   1.079       .  S
C1028      C1029   1.364       .  A
C1028      H1040   1.082       .  S
C1029      H1041   1.079       .  S
C1030      C1303   1.494       .  S
C1031      C1339   1.494       .  S
C1032      C1505   1.502       .  S
C1033      C1437   1.501       .  S
N1044      C1049   1.349       .  A
N1044      C1048   1.345       .  A
N1044      H1076   1.042       .  S
N1045      C1052   1.355       .  A
N1045      C1053   1.355       .  A
N1046      C1051   1.361       .  A
N1046      C1050   1.360       .  A
N1046      H1077   1.036       .  S
N1047      C1054   1.353       .  A
N1047      C1055   1.350       .  A
C1048      C1056   1.388       .  A
C1048      C1064   1.405       .  A
C1049      C1065   1.406       .  A
C1049      C1057   1.387       .  A
C1050      C1058   1.388       .  A
C1050      C1067   1.433       .  A
C1051      C1066   1.432       .  A
C1051      C1059   1.387       .  A
C1052      C1064   1.414       .  A
C1052      C1060   1.379       .  A
C1053      C1067   1.433       .  A
C1053      C1061   1.396       .  A
C1054      C1062   1.377       .  A
C1054      C1065   1.405       .  A
C1055      C1063   1.395       .  A
C1055      C1066   1.427       .  A
C1056      C1057   1.375       .  A
C1056      H1068   1.082       .  S
C1057      H1069   1.082       .  S
C1058      C1059   1.381       .  A
C1058      H1070   1.080       .  S
C1059      H1071   1.080       .  S
C1060      C1061   1.365       .  A
C1060      H1072   1.082       .  S
C1061      H1073   1.075       .  S
C1062      C1063   1.371       .  A
C1062      H1074   1.083       .  S
C1063      H1075   1.077       .  S
C1064      C1304   1.492       .  S
C1065      C1336   1.495       .  S
C1066      C1530   1.509       .  S
C1067      C1487   1.504       .  S
N1078      C1083   1.348       .  A
N1078      C1082   1.346       .  A
N1078      H1110   1.041       .  S
N1079      C1086   1.357       .  A
N1079      C1087   1.355       .  A
N1080      C1085   1.363       .  A
N1080      C1084   1.360       .  A
N1080      H1111   1.036       .  S
N1081      C1088   1.354       .  A
N1081      C1089   1.352       .  A
C1082      C1090   1.388       .  A
C1082      C1098   1.403       .  A
C1083      C1099   1.403       .  A
C1083      C1091   1.387       .  A
C1084      C1092   1.387       .  A
C1084      C1101   1.432       .  A
C1085      C1100   1.435       .  A
C1085      C1093   1.389       .  A
C1086      C1098   1.417       .  A
C1086      C1094   1.381       .  A
C1087      C1101   1.431       .  A
C1087      C1095   1.394       .  A
C1088      C1096   1.376       .  A
C1088      C1099   1.406       .  A
C1089      C1097   1.397       .  A
C1089      C1100   1.430       .  A
C1090      C1091   1.371       .  A
C1090      H1102   1.083       .  S
C1091      H1103   1.082       .  S
C1092      C1093   1.383       .  A
C1092      H1104   1.082       .  S
C1093      H1105   1.080       .  S
C1094      C1095   1.364       .  A
C1094      H1106   1.082       .  S
C1095      H1107   1.077       .  S
C1096      C1097   1.369       .  A
C1096      H1108   1.083       .  S
C1097      H1109   1.076       .  S
C1098      C1302   1.493       .  S
C1099      C1166   1.492       .  S
C1100      C1424   1.513       .  S
C1101      C1457   1.502       .  S
N1112      C1117   1.351       .  A
N1112      C1116   1.351       .  A
N1112      H1144   1.042       .  S
N1113      C1120   1.356       .  A
N1113      C1121   1.354       .  A
N1114      C1119   1.363       .  A
N1114      C1118   1.363       .  A
N1114      H1145   1.036       .  S
N1115      C1122   1.357       .  A
N1115      C1123   1.354       .  A
C1116      C1124   1.387       .  A
C1116      C1132   1.407       .  A
C1117      C1133   1.405       .  A
C1117      C1125   1.386       .  A
C1118      C1126   1.389       .  A
C1118      C1135   1.435       .  A
C1119      C1134   1.433       .  A
C1119      C1127   1.388       .  A
C1120      C1132   1.415       .  A
C1120      C1128   1.380       .  A
C1121      C1135   1.430       .  A
C1121      C1129   1.394       .  A
C1122      C1130   1.383       .  A
C1122      C1133   1.418       .  A
C1123      C1131   1.391       .  A
C1123      C1134   1.428       .  A
C1124      C1125   1.363       .  A
C1124      H1136   1.082       .  S
C1125      H1137   1.082       .  S
C1126      C1127   1.380       .  A
C1126      H1138   1.082       .  S
C1127      H1139   1.082       .  S
C1128      C1129   1.363       .  A
C1128      H1140   1.082       .  S
C1129      H1141   1.077       .  S
C1130      C1131   1.363       .  A
C1130      H1142   1.081       .  S
C1131      H1143   1.079       .  S
C1132      C1305   1.499       .  S
C1133      C1169   1.499       .  S
C1134      C1399   1.504       .  S
C1135      C1473   1.504       .  S
N1146      C1151   1.353       .  A
N1146      C1150   1.352       .  A
N1146      H1178   1.042       .  S
N1147      C1154   1.347       .  A
N1147      C1155   1.351       .  A
N1148      C1153   1.345       .  A
N1148      C1152   1.347       .  A
N1149      C1156   1.347       .  A
N1149      C1157   1.349       .  A
C1150      C1158   1.388       .  A
C1150      C1166   1.414       .  A
C1151      C1167   1.413       .  A
C1151      C1159   1.387       .  A
C1152      C1160   1.387       .  A
C1152      C1169   1.404       .  A
C1153      C1168   1.403       .  A
C1153      C1161   1.387       .  A
C1154      C1166   1.413       .  A
C1154      C1162   1.387       .  A
C1155      C1163   1.386       .  A
C1156      C1164   1.386       .  A
C1156      C1167   1.411       .  A
C1157      C1165   1.387       .  A
C1158      C1159   1.373       .  A
C1158      H1170   1.082       .  S
C1159      H1171   1.082       .  S
C1160      C1161   1.373       .  A
C1160      H1172   1.082       .  S
C1161      H1173   1.082       .  S
C1162      C1163   1.379       .  A
C1162      H1174   1.082       .  S
C1164      C1165   1.378       .  A
C1164      H1176   1.082       .  S
C1167      C1234   1.492       .  S
C1168      C1200   1.494       .  S
N1180      C1185   1.349       .  A
N1180      C1184   1.348       .  A
N1180      H1212   1.042       .  S
N1181      C1188   1.356       .  A
N1181      C1189   1.355       .  A
N1182      C1187   1.363       .  A
N1182      C1186   1.364       .  A
N1182      H1213   1.035       .  S
N1183      C1190   1.356       .  A
N1183      C1191   1.353       .  A
C1184      C1192   1.387       .  A
C1184      C1200   1.402       .  A
C1185      C1201   1.402       .  A
C1185      C1193   1.387       .  A
C1186      C1194   1.388       .  A
C1186      C1203   1.435       .  A
C1187      C1202   1.434       .  A
C1187      C1195   1.388       .  A
C1188      C1200   1.417       .  A
C1188      C1196   1.382       .  A
C1189      C1203   1.430       .  A
C1189      C1197   1.391       .  A
C1190      C1198   1.382       .  A
C1190      C1201   1.416       .  A
C1191      C1199   1.392       .  A
C1191      C1202   1.428       .  A
C1192      C1193   1.362       .  A
C1192      H1204   1.082       .  S
C1193      H1205   1.082       .  S
C1194      C1195   1.380       .  A
C1194      H1206   1.082       .  S
C1195      H1207   1.082       .  S
C1196      C1197   1.364       .  A
C1196      H1208   1.081       .  S
C1197      H1209   1.079       .  S
C1198      C1199   1.364       .  A
C1198      H1210   1.081       .  S
C1199      H1211   1.079       .  S
C1201      C1269   1.494       .  S
C1202      C1510   1.502       .  S
C1203      C1392   1.509       .  S
N1214      C1219   1.346       .  A
N1214      C1218   1.347       .  A
N1214      H1246   1.042       .  S
N1215      C1222   1.353       .  A
N1215      C1223   1.351       .  A
N1216      C1221   1.360       .  A
N1216      C1220   1.362       .  A
N1216      H1247   1.038       .  S
N1217      C1224   1.356       .  A
N1217      C1225   1.354       .  A
C1218      C1226   1.387       .  A
C1218      C1234   1.405       .  A
C1219      C1235   1.404       .  A
C1219      C1227   1.387       .  A
C1220      C1228   1.388       .  A
C1220      C1237   1.433       .  A
C1221      C1236   1.433       .  A
C1221      C1229   1.388       .  A
C1222      C1234   1.407       .  A
C1222      C1230   1.377       .  A
C1223      C1237   1.427       .  A
C1223      C1231   1.396       .  A
C1224      C1232   1.377       .  A
C1224      C1235   1.412       .  A
C1225      C1233   1.398       .  A
C1225      C1236   1.432       .  A
C1226      C1227   1.375       .  A
C1226      H1238   1.082       .  S
C1227      H1239   1.082       .  S
C1228      C1229   1.380       .  A
C1228      H1240   1.079       .  S
C1229      H1241   1.080       .  S
C1230      C1231   1.371       .  A
C1230      H1242   1.083       .  S
C1231      H1243   1.077       .  S
C1232      C1233   1.366       .  A
C1232      H1244   1.082       .  S
C1233      H1245   1.075       .  S
C1235      C1270   1.494       .  S
C1236      C1526   1.504       .  S
C1237      C1414   1.509       .  S
N1248      C1253   1.344   1_655  A
N1248      C1252   1.345       .  A
N1249      C1256   1.348       .  A
N1249      C1257   1.345       .  A
N1250      C1255   1.350   1_655  A
N1250      C1254   1.349       .  A
N1250      H1281   1.042       .  S
N1251      C1258   1.348       .  A
N1251      C1259   1.347       .  A
C1252      C1260   1.387       .  A
C1252      C1268   1.402       .  A
C1253      C1269   1.402       .  A
C1253      C1261   1.387       .  A
C1254      C1262   1.387       .  A
C1254      C1271   1.411       .  A
C1255      C1270   1.411       .  A
C1255      C1263   1.387       .  A
C1256      C1264   1.386       .  A
C1257      C1271   1.411       .  A
C1257      C1265   1.387       .  A
C1258      C1266   1.387       .  A
C1259      C1267   1.387       .  A
C1259      C1270   1.412       .  A
C1260      C1261   1.375   1_655  A
C1260      H1272   1.082       .  S
C1261      H1273   1.082       .  S
C1262      C1263   1.376   1_655  A
C1262      H1274   1.082       .  S
C1263      H1275   1.082       .  S
C1264      C1265   1.380       .  A
C1265      H1277   1.082       .  S
C1266      C1267   1.380       .  A
C1267      H1279   1.082       .  S
N1282      C1287   1.345       .  A
N1282      C1286   1.346   1_565  A
N1282      H1314   1.044       .  S
N1283      C1290   1.347       .  A
N1283      C1291   1.348       .  A
N1284      C1289   1.348       .  A
N1284      C1288   1.348   1_565  A
N1285      C1292   1.347       .  A
N1285      C1293   1.346       .  A
C1286      C1294   1.387       .  A
C1286      C1302   1.405       .  A
C1287      C1303   1.405       .  A
C1287      C1295   1.387       .  A
C1288      C1296   1.387       .  A
C1288      C1305   1.410       .  A
C1289      C1304   1.408       .  A
C1289      C1297   1.387       .  A
C1290      C1302   1.413       .  A
C1290      C1298   1.386       .  A
C1291      C1299   1.387       .  A
C1292      C1300   1.387       .  A
C1292      C1303   1.413       .  A
C1293      C1301   1.387       .  A
C1294      C1295   1.377   1_545  A
C1294      H1306   1.082       .  S
C1295      H1307   1.082       .  S
C1296      C1297   1.377   1_545  A
C1296      H1308   1.082       .  S
C1297      H1309   1.082       .  S
C1298      C1299   1.381       .  A
C1298      H1310   1.082       .  S
C1300      C1301   1.380       .  A
C1300      H1312   1.082       .  S
N1316      C1321   1.354   1_455  A
N1316      C1320   1.354       .  A
N1317      C1324   1.347       .  A
N1317      C1325   1.350       .  A
N1318      C1323   1.346   1_455  A
N1318      C1322   1.346       .  A
N1318      H1349   1.043       .  S
N1319      C1326   1.348       .  A
N1319      C1327   1.352       .  A
C1320      C1328   1.387       .  A
C1320      C1336   1.416       .  A
C1321      C1337   1.416       .  A
C1321      C1329   1.387       .  A
C1322      C1330   1.387       .  A
C1322      C1339   1.404       .  A
C1323      C1338   1.404       .  A
C1323      C1331   1.387       .  A
C1324      C1332   1.387       .  A
C1325      C1339   1.413       .  A
C1325      C1333   1.386       .  A
C1326      C1334   1.387       .  A
C1327      C1335   1.386       .  A
C1327      C1338   1.415       .  A
C1328      C1329   1.373   1_455  A
C1328      H1340   1.082       .  S
C1329      H1341   1.082       .  S
C1330      C1331   1.373   1_455  A
C1330      H1342   1.082       .  S
C1331      H1343   1.082       .  S
C1332      C1333   1.378       .  A
C1333      H1345   1.082       .  S
C1334      C1335   1.379       .  A
C1335      H1347   1.082       .  S
N1350      C1355   1.344       .  A
N1350      C1354   1.347       .  A
N1350      H1382   1.044       .  S
N1351      C1358   1.348       .  A
N1351      C1359   1.347       .  A
N1352      C1357   1.348       .  A
N1352      C1356   1.347       .  A
N1353      C1360   1.347       .  A
N1353      C1361   1.346       .  A
C1354      C1362   1.387       .  A
C1354      C1370   1.405       .  A
C1355      C1371   1.405       .  A
C1355      C1363   1.388       .  A
C1356      C1364   1.387       .  A
C1356      C1373   1.409       .  A
C1357      C1372   1.408       .  A
C1357      C1365   1.387       .  A
C1358      C1370   1.413       .  A
C1358      C1366   1.386       .  A
C1359      C1367   1.388       .  A
C1360      C1368   1.388       .  A
C1360      C1371   1.414       .  A
C1361      C1369   1.386       .  A
C1362      C1363   1.377       .  A
C1362      H1374   1.082       .  S
C1363      H1375   1.082       .  S
C1364      C1365   1.378       .  A
C1364      H1376   1.082       .  S
C1365      H1377   1.082       .  S
C1366      C1367   1.381       .  A
C1366      H1378   1.082       .  S
C1368      C1369   1.381       .  A
C1368      H1380   1.082       .  S
C1384      N1402   1.357       .  A
C1384      C1421   1.463       .  S
N1385      N1402   1.330       .  A
N1385      N1407   1.317       .  A
N1385     Co1422   2.090       .  S
C1386      N1411   1.353       .  A
C1386      H1431   1.081       .  S
C1386      C1424   1.481       .  S
H1387      C1428   1.081       .  S
C1388      N1412   1.340       .  A
C1388      H1417   1.082       .  S
C1388      C1392   1.468       .  S
Co1389     N1407   2.096       .  S
Co1389     N1397   2.090       .  S
Co1389     N1429   2.103       .  S
Co1389     N1405   2.088       .  S
Co1389    Cl1433   2.379       .  S
N1390      C1428   1.349       .  A
N1390      N1397   1.317       .  A
N1390     Co1391   2.098       .  S
Co1391     N1394   2.102       .  S
Co1391     N1411   2.106       .  S
Co1391     N1398   2.092       .  S
Co1391    Cl1433   2.523       .  S
C1392      N1430   1.359       .  A
N1393      N1400   1.318       .  A
N1393      N1423   1.324       .  A
N1393     Co1426   2.105       .  S
N1394      N1412   1.319       .  A
N1394      N1430   1.332       .  A
N1395      C1424   1.348       .  A
N1395      N1405   1.319       .  A
H1396      C1421   1.081       .  S
N1397      N1418   1.319       .  A
N1398      N1416   1.319       .  A
N1398      N1403   1.330       .  A
C1399      N1403   1.356       .  A
C1399      C1427   1.468       .  S
N1400      C1415   1.347       .  A
N1400     Co1422   2.090       .  S
C1401      N1429   1.340       .  A
C1401      H1435   1.081       .  S
C1401      C1404   1.467       .  S
C1404      N1425   1.358       .  A
N1405      N1411   1.316       .  A
N1406      C1432   1.347       .  A
N1406      N1408   1.318       .  A
N1406     Co1422   2.089       .  S
N1407      C1421   1.338       .  A
N1408      N1436   1.323       .  A
N1408     Co1426   2.102       .  S
H1409      C1432   1.081       .  S
H1410      C1427   1.082       .  S
N1412     Co1426   2.104       .  S
N1413      N1425   1.331       .  A
N1413      N1429   1.318       .  A
N1413     Co1422   2.095       .  S
C1414      N1418   1.348       .  A
C1414      C1428   1.478       .  S
C1415      H1419   1.082       .  S
C1415      C1434   1.468       .  S
N1416      C1427   1.340       .  A
N1416     Co1426   2.107       .  S
C1420      N1436   1.352       .  A
C1420      C1432   1.471       .  S
Co1422    Cl1433   2.522       .  S
N1423      C1434   1.354       .  A
Co1426    Cl1433   2.380       .  S
C1437      N1455   1.357       .  A
C1437      C1474   1.464       .  S
N1438      N1455   1.330       .  A
N1438      N1460   1.317       .  A
N1438     Co1475   2.092       .  S
C1439      N1464   1.351       .  A
C1439      H1484   1.081       .  S
C1439      C1477   1.480       .  S
H1440      C1481   1.081       .  S
C1441      N1465   1.340       .  A
C1441      H1470   1.082       .  S
C1441      C1445   1.468       .  S
Co1442     N1460   2.098       .  S
Co1442     N1450   2.081       .  S
Co1442     N1482   2.096   1_565  S
Co1442     N1458   2.083   1_565  S
Co1442    Cl1486   2.372       .  S
N1443      C1481   1.352       .  A
N1443      N1450   1.316       .  A
N1443     Co1444   2.103       .  S
Co1444     N1447   2.093       .  S
Co1444     N1464   2.098   1_565  S
Co1444     N1451   2.093   1_565  S
Co1444    Cl1486   2.523       .  S
C1445      N1483   1.357       .  A
N1446      N1453   1.317       .  A
N1446      N1476   1.322       .  A
N1446     Co1479   2.095   1_565  S
N1447      N1465   1.319       .  A
N1447      N1483   1.331       .  A
N1448      C1477   1.346       .  A
N1448      N1458   1.318       .  A
H1449      C1474   1.081       .  S
N1450      N1471   1.317       .  A
N1451      N1469   1.318       .  A
N1451      N1456   1.329       .  A
C1452      N1456   1.356       .  A
C1452      C1480   1.465       .  S
N1453      C1468   1.348       .  A
N1453     Co1475   2.094       .  S
C1454      N1482   1.338       .  A
C1454      H1488   1.080       .  S
C1454      C1457   1.462       .  S
C1457      N1478   1.358       .  A
N1458      N1464   1.316       .  A
N1459      C1485   1.348       .  A
N1459      N1461   1.318       .  A
N1459     Co1475   2.090   1_545  S
N1460      C1474   1.339       .  A
N1461      N1489   1.324       .  A
N1461     Co1479   2.105       .  S
H1462      C1485   1.082       .  S
H1463      C1480   1.082       .  S
N1465     Co1479   2.106   1_565  S
N1466      N1478   1.331       .  A
N1466      N1482   1.317       .  A
N1466     Co1475   2.094   1_545  S
C1467      N1471   1.345       .  A
C1467      C1481   1.481       .  S
C1468      H1472   1.081       .  S
C1468      C1487   1.473       .  S
N1469      C1480   1.338       .  A
N1469     Co1479   2.095       .  S
C1473      N1489   1.353       .  A
C1473      C1485   1.469       .  S
Co1475    Cl1486   2.524       .  S
N1476      C1487   1.349       .  A
Co1479    Cl1486   2.375   1_545  S
C1490      N1508   1.355       .  A
C1490      C1527   1.464       .  S
N1491      N1508   1.329       .  A
N1491      N1513   1.318       .  A
N1491     Co1528   2.089   1_655  S
C1492      N1517   1.352       .  A
C1492      H1537   1.081       .  S
C1492      C1530   1.481       .  S
H1493      C1534   1.081       .  S
C1494      N1518   1.338       .  A
C1494      H1523   1.082       .  S
C1494      C1498   1.464       .  S
Co1495     N1513   2.096       .  S
Co1495     N1503   2.086       .  S
Co1495     N1535   2.102   1_655  S
Co1495     N1511   2.084   1_655  S
Co1495    Cl1539   2.378   1_655  S
N1496      C1534   1.351       .  A
N1496      N1503   1.316       .  A
N1496     Co1497   2.100   1_655  S
Co1497     N1500   2.099   1_455  S
Co1497     N1517   2.107       .  S
Co1497     N1504   2.094       .  S
Co1497    Cl1539   2.524       .  S
C1498      N1536   1.358       .  A
N1499      N1506   1.316       .  A
N1499      N1529   1.321       .  A
N1499     Co1532   2.095   1_655  S
N1500      N1518   1.318       .  A
N1500      N1536   1.331       .  A
N1501      C1530   1.347       .  A
N1501      N1511   1.319       .  A
H1502      C1527   1.080       .  S
N1503      N1524   1.318       .  A
N1504      N1522   1.318       .  A
N1504      N1509   1.330       .  A
C1505      N1509   1.358       .  A
C1505      C1533   1.463       .  S
N1506      C1521   1.349       .  A
N1506     Co1528   2.092   1_655  S
C1507      N1535   1.339       .  A
C1507      H1541   1.080       .  S
C1507      C1510   1.466       .  S
C1510      N1531   1.356       .  A
N1511      N1517   1.317       .  A
N1512      C1538   1.348       .  A
N1512      N1514   1.316       .  A
N1512     Co1528   2.089       .  S
N1513      C1527   1.338       .  A
N1514      N1542   1.321       .  A
N1514     Co1532   2.094       .  S
H1515      C1538   1.081       .  S
H1516      C1533   1.082       .  S
N1518     Co1532   2.098   1_655  S
N1519      N1531   1.330       .  A
N1519      N1535   1.318       .  A
N1519     Co1528   2.091       .  S
C1520      N1524   1.347       .  A
C1520      C1534   1.479       .  S
C1521      H1525   1.081       .  S
C1521      C1540   1.475       .  S
N1522      C1533   1.337       .  A
N1522     Co1532   2.096       .  S
C1526      N1542   1.349       .  A
C1526      C1538   1.474       .  S
Co1528    Cl1539   2.523       .  S
N1529      C1540   1.349       .  A
Co1532    Cl1539   2.370       .  S
