geometry optimzed in LAMMPS
_audit_creation_date              2020-11-30 
_audit_creation_method            'lammps2cif' 
_symmetry_space_group_name_H-M    'P1' 
_symmetry_Int_Tables_number       1 
_symmetry_cell_setting            triclinic 
loop_ 
_symmetry_equiv_pos_as_xyz 
  x,y,z 
_cell_length_a                    43.69714144 
_cell_length_b                    44.15575447343229 
_cell_length_c                    80.74774258986201 
_cell_angle_alpha                 89.80350222103259 
_cell_angle_beta                  90.147162791397 
_cell_angle_gamma                 89.71196364844725 
loop_ 
_atom_site_label 
_atom_site_type_symbol 
_atom_site_fract_x 
_atom_site_fract_y 
_atom_site_fract_z 
_atom_site_charge 
C1          C  0.49195315  0.45863069  0.75869310     0.86500
C2          C  0.46346453  0.46368741  0.74777021    -0.53700
C3          C  0.47677638  0.99103541  0.73760283     0.09400
C4          C  0.50386600  0.01201101  0.74186776     0.20400
C5          C  0.01734298  0.46388440  0.74623889    -0.54500
C6          C  0.02992421  0.99169420  0.74044563     0.09500
C7          C  0.49430979  0.48698781  0.76946063    -0.54000
C8          C  0.99781939  0.01751456  0.76109550     0.10100
H9          H  0.44531108  0.44722845  0.74658224     0.14600
H10         H  0.50412585  0.03330352  0.73453987     0.00300
H11         H  0.03483935  0.44646064  0.74526712     0.14900
H12         H  0.49621244  0.48602235  0.78287196     0.14700
O13         O  0.28262965  0.06730540  0.62943385    -0.71800
O14         O  0.21987664  0.05585108  0.66174568    -0.72000
O15         O  0.28246317  0.05534388  0.66202684    -0.71900
O16         O  0.22086820  0.06772980  0.62883296    -0.71900
O17         O  0.22045800  0.01936554  0.62422034    -0.71800
O18         O  0.27329967  0.50627993  0.65464849    -0.71800
O19         O  0.21119414  0.50556404  0.65446551    -0.71800
O20         O  0.28181046  0.01926066  0.62392495    -0.72000
V21         V  0.25137591  0.06064160  0.64548464     1.35200
V22         V  0.24241798  0.51373403  0.63849877     1.35200
C23         C  0.29289789  0.04520960  0.62113197     0.77500
C24         C  0.20937842  0.02969635  0.66477174     0.77500
C25         C  0.29412556  0.02929531  0.66431301     0.77400
C26         C  0.21057296  0.04554747  0.62063130     0.77400
O27         O  0.21854404  0.06626936  0.36706676    -0.71800
O28         O  0.28572139  0.04990109  0.33823224    -0.72000
O29         O  0.22394426  0.05087376  0.33487997    -0.71900
O30         O  0.27972826  0.06562047  0.37039996    -0.71900
O31         O  0.27983395  0.01769408  0.37642119    -0.71800
O32         O  0.21335733  0.51017291  0.34187671    -0.71800
O33         O  0.27491314  0.51075765  0.34496948    -0.71800
O34         O  0.21882276  0.01891884  0.37435541    -0.72000
V35         V  0.25200586  0.05724477  0.35268896     1.35200
V36         V  0.24125086  0.51898408  0.35916183     1.35200
C37         C  0.20797214  0.04530271  0.37608612     0.77500
C38         C  0.29605563  0.02320772  0.33649833     0.77500
C39         C  0.21237696  0.02491609  0.33280214     0.77400
C40         C  0.28921175  0.04417057  0.37954865     0.77400
N41         N  0.51559112  0.48333851  0.02654565    -0.36600
N42         N  0.51772419  0.43700415  0.00117272    -0.57200
N43         N  0.51778026  0.48476871  0.97577365    -0.36600
N44         N  0.49757972  0.03153672  0.00107536    -0.57200
C45         C  0.51890307  0.45835414  0.03618101     0.27000
C46         C  0.49730328  0.00843637  0.03598771     0.27000
C47         C  0.52361345  0.46005218  0.96640671     0.27000
C48         C  0.50837326  0.01102352  0.96576899     0.27000
C49         C  0.51100606  0.41930326  0.01437867     0.35600
C50         C  0.51261018  0.42005357  0.98754504     0.35600
C51         C  0.49140040  0.04892541  0.01440114     0.35600
C52         C  0.49738217  0.05009140  0.98774397     0.35600
C53         C  0.52560700  0.46705044  0.05226384    -0.21900
C54         C  0.50284106  0.99951423  0.05221126    -0.21900
C55         C  0.53295813  0.46924494  0.95077645    -0.21900
C56         C  0.51182063  0.00262975  0.94931453    -0.21900
C57         C  0.50219792  0.39081033  0.00913140    -0.22900
C58         C  0.50322855  0.39126305  0.99214373    -0.22900
C59         C  0.48722921  0.07878867  0.00952725    -0.22900
C60         C  0.49108572  0.07955148  0.99267544    -0.22900
C61         C  0.51382344  0.42808657  0.03113985    -0.18300
C62         C  0.49197652  0.03886161  0.03104159    -0.18300
C63         C  0.50299967  0.04118760  0.97116341    -0.18300
C64         C  0.51759343  0.42965776  0.97103027    -0.18300
H65         H  0.52896729  0.45250641  0.06293919     0.14600
H66         H  0.50352229  0.01364360  0.06312953     0.14600
H67         H  0.53865726  0.45498860  0.94034322     0.14600
H68         H  0.51171798  0.01723495  0.93852304     0.14600
H69         H  0.49564014  0.37170393  0.01674339     0.12900
H70         H  0.49770973  0.37247869  0.98411717     0.12900
H71         H  0.48250920  0.09813589  0.01732830     0.12900
H72         H  0.48965082  0.09961784  0.98497326     0.12900
H73         H  0.50700802  0.48384562  0.01458297     0.26200
H74         H  0.50669459  0.48464116  0.98711277     0.26200
O75         O  0.01999597  0.26423614  0.16133408    -0.71800
O76         O  0.02157176  0.20014992  0.12990594    -0.72000
O77         O  0.02587927  0.26062745  0.12810373    -0.71900
O78         O  0.01613699  0.20374427  0.16318826    -0.71900
O79         O  0.46796863  0.20360775  0.16127109    -0.71800
O80         O  0.47171747  0.26317075  0.12683791    -0.71800
O81         O  0.46923067  0.20242160  0.12790794    -0.71800
O82         O  0.46991611  0.26476150  0.16006436    -0.72000
V83         V  0.01994328  0.23222093  0.14559898     1.35200
V84         V  0.47067501  0.23341195  0.14408262     1.35200
C85         C  0.49474932  0.27525380  0.16561741     0.77500
C86         C  0.49384486  0.19095730  0.12259398     0.77500
C87         C  0.49728170  0.27186733  0.12120964     0.77400
C88         C  0.49223806  0.19284186  0.16767990     0.77400
C89         C  0.99187472  0.45491528  0.24235355     0.86500
C90         C  0.02077927  0.46028821  0.25292969    -0.53700
C91         C  0.03058755  0.98975930  0.25919634     0.09400
C92         C  0.00033597  0.00786456  0.25875015     0.20400
C93         C  0.46561752  0.45901161  0.25332033    -0.54500
C94         C  0.47817378  0.98271432  0.26466915     0.09500
C95         C  0.98988546  0.48326360  0.23125906    -0.54000
C96         C  0.99375214  0.01386869  0.24027700     0.10100
H97         H  0.04039838  0.44533611  0.25345844     0.14600
H98         H  0.00082797  0.02863971  0.26645311     0.00300
H99         H  0.44836114  0.44158867  0.25470602     0.14900
H100        H  0.98920592  0.48232483  0.21781970     0.14700
O101        O  0.46956071  0.26731998  0.84184291    -0.71800
O102        O  0.47102931  0.20626738  0.87524254    -0.72000
O103        O  0.47158872  0.26694981  0.87532509    -0.71900
O104        O  0.46927000  0.20598941  0.84180911    -0.71900
O105        O  0.02489666  0.20664481  0.84071767    -0.71800
O106        O  0.02914417  0.26796561  0.87320258    -0.71800
O107        O  0.02762518  0.20783299  0.87400785    -0.71800
O108        O  0.02625667  0.26781750  0.83989491    -0.72000
V109        V  0.47126630  0.23661117  0.85847999     1.35200
V110        V  0.02599047  0.23759693  0.85690538     1.35200
C111        C  0.00117519  0.27887976  0.83470336     0.77500
C112        C  0.00307013  0.19876573  0.88062439     0.77500
C113        C  0.00522029  0.27842102  0.87984755     0.77400
C114        C  0.99945621  0.19626376  0.83595337     0.77400
N115        N  0.00079334  0.08090255  0.47279142    -0.36600
N116        N  0.45344718  0.07839121  0.50051003    -0.57200
N117        N  0.00466426  0.07191220  0.52374765    -0.36600
N118        N  0.04988232  0.07338772  0.49733568    -0.57200
C119        C  0.47274504  0.07661842  0.46479669     0.27000
C120        C  0.02485146  0.07505027  0.46272741     0.27000
C121        C  0.47893178  0.07226917  0.53484303     0.27000
C122        C  0.03022805  0.06545158  0.53261278     0.27000
C123        C  0.43391915  0.08133855  0.48754149     0.35600
C124        C  0.43632219  0.07977874  0.51445827     0.35600
C125        C  0.06723803  0.07694690  0.48363323     0.35600
C126        C  0.06933596  0.07320816  0.51041505     0.35600
C127        C  0.48090419  0.06929602  0.44868063    -0.21900
C128        C  0.01417339  0.06738772  0.44710074    -0.21900
C129        C  0.48986971  0.06243413  0.55009099    -0.21900
C130        C  0.02198520  0.05597509  0.54837927    -0.21900
C131        C  0.40421487  0.08451295  0.49331402    -0.22900
C132        C  0.40574922  0.08361487  0.51032015    -0.22900
C133        C  0.09788587  0.07871997  0.48804115    -0.22900
C134        C  0.09920458  0.07629719  0.50497344    -0.22900
C135        C  0.44203492  0.07844181  0.47059713    -0.18300
C136        C  0.05625343  0.07626266  0.46710926    -0.18300
C137        C  0.06085593  0.06868182  0.52714884    -0.18300
C138        C  0.44745020  0.07528261  0.53081643    -0.18300
H139        H  0.46583776  0.06395672  0.43845651     0.14600
H140        H  0.02755832  0.06129929  0.43634390     0.14600
H141        H  0.47663813  0.05556958  0.56076456     0.14600
H142        H  0.03702243  0.04947257  0.55846625     0.14600
H143        H  0.38348085  0.08663898  0.48603645     0.12900
H144        H  0.38646012  0.08495629  0.51867405     0.12900
H145        H  0.11736716  0.08105130  0.47989283     0.12900
H146        H  0.11985609  0.07636032  0.51240366     0.12900
H147        H  0.00194249  0.08979730  0.48465467     0.26200
H148        H  0.00395870  0.08243721  0.51227969     0.26200
C149        C  0.43833787  0.38067675  0.20617922    -0.17800
C150        C  0.43858643  0.35532288  0.19581776    -0.20000
C151        C  0.46627592  0.34091521  0.19176940     0.20700
C152        C  0.49400927  0.35233740  0.19809012    -0.02900
C153        C  0.49370842  0.37776522  0.20867359    -0.06000
C154        C  0.46574940  0.39193640  0.21278371     0.20900
C155        C  0.01319063  0.37742057  0.22328888     0.19100
C156        C  0.03635032  0.35535119  0.22447592    -0.17500
C157        C  0.03750024  0.33134257  0.21325171    -0.19700
C158        C  0.01530495  0.32879075  0.20076539     0.20600
C159        C  0.01657682  0.30503862  0.18928175    -0.32700
C160        C  0.49457640  0.30134120  0.17713493     0.01300
C161        C  0.46672362  0.31543939  0.18142767    -0.24000
C162        C  0.46567050  0.41715627  0.22336004    -0.28600
C163        C  0.99066697  0.42550931  0.23234132     0.07000
C164        C  0.01283277  0.40227931  0.23402424    -0.27300
H165        H  0.41665901  0.39137491  0.20910920     0.11700
H166        H  0.41709285  0.34698281  0.19096209     0.12800
H167        H  0.05390372  0.35692818  0.23393248     0.11900
H168        H  0.05583982  0.31483467  0.21429665     0.11100
H169        H  0.03497084  0.28850855  0.19000500     0.16500
H170        H  0.44533802  0.30679129  0.17657931     0.12400
H171        H  0.44417700  0.42837059  0.22610526     0.15300
H172        H  0.03014303  0.40300581  0.24352477     0.15100
C173        C  0.03278564  0.14060849  0.21621646    -0.17800
C174        C  0.03283036  0.11543238  0.22680276    -0.20000
C175        C  0.00926722  0.09400942  0.22594041     0.20700
C176        C  0.49151187  0.09578967  0.21494374    -0.02900
C177        C  0.49092632  0.12120574  0.20419767    -0.06000
C178        C  0.00901636  0.14496168  0.20470206     0.20900
C179        C  0.46453368  0.12757946  0.19464953     0.19100
C180        C  0.43873813  0.10898140  0.19625969    -0.17500
C181        C  0.43949828  0.08355553  0.20666500    -0.19700
C182        C  0.46595777  0.07641909  0.21579209     0.20600
C183        C  0.46781097  0.04956263  0.22513058    -0.32700
C184        C  0.98869036  0.04445622  0.23309615     0.01300
C185        C  0.01088122  0.06700822  0.23516237    -0.24000
C186        C  0.01015514  0.16863873  0.19305509    -0.28600
C187        C  0.49120776  0.16927248  0.18092530     0.07000
C188        C  0.46471098  0.15177747  0.18326267    -0.27300
H189        H  0.05177102  0.15626741  0.21674243     0.11700
H190        H  0.05186575  0.11216023  0.23525947     0.12800
H191        H  0.41821824  0.11362026  0.18911158     0.11900
H192        H  0.41958451  0.06907952  0.20729121     0.11100
H193        H  0.44875318  0.03392668  0.22519680     0.16500
H194        H  0.03051373  0.06262850  0.24300928     0.12400
H195        H  0.02968074  0.18369178  0.19292977     0.15300
H196        H  0.44460091  0.15620271  0.17573022     0.15100
C197        C  0.06067285  0.11540053  0.93444393    -0.17800
C198        C  0.06004089  0.13755317  0.92200872    -0.20000
C199        C  0.03222695  0.14631763  0.91463878     0.20700
C200        C  0.00472522  0.13281985  0.91995342    -0.02900
C201        C  0.00537153  0.11032820  0.93242358    -0.06000
C202        C  0.03350864  0.10158376  0.93969765     0.20900
C203        C  0.47246861  0.09739890  0.93970264     0.19100
C204        C  0.44428983  0.10816767  0.93368974    -0.17500
C205        C  0.44329939  0.12987256  0.92104124    -0.19700
C206        C  0.47047373  0.14093196  0.91409188     0.20600
C207        C  0.46967946  0.16234464  0.90121708    -0.32700
C208        C  0.00359251  0.17654816  0.89442928     0.01300
C209        C  0.03148411  0.16803912  0.90190661    -0.24000
C210        C  0.03392681  0.07918931  0.95207675    -0.28600
C211        C  0.50198807  0.06506006  0.95827344     0.07000
C212        C  0.47367930  0.07558018  0.95232154    -0.27300
H213        H  0.08244185  0.10897586  0.93990434     0.11700
H214        H  0.08135124  0.14774064  0.91809666     0.12800
H215        H  0.42300686  0.09980809  0.93877587     0.11900
H216        H  0.42125838  0.13786607  0.91661385     0.11100
H217        H  0.44779649  0.17064633  0.89670758     0.16500
H218        H  0.05267176  0.17817788  0.89774824     0.12400
H219        H  0.05537957  0.07237674  0.95778404     0.15300
H220        H  0.45271508  0.06658880  0.95749736     0.15100
C221        C  0.06863042  0.33850011  0.91782961    -0.17800
C222        C  0.07139828  0.36031282  0.93022011    -0.20000
C223        C  0.04520176  0.37288869  0.93751739     0.20700
C224        C  0.01590719  0.36277358  0.93264395    -0.02900
C225        C  0.01312818  0.34078801  0.92014182    -0.06000
C226        C  0.03962525  0.32903490  0.91252826     0.20900
C227        C  0.47581744  0.33273635  0.91454604     0.19100
C228        C  0.44991646  0.34706399  0.92123581    -0.17500
C229        C  0.45306404  0.36890302  0.93365065    -0.19700
C230        C  0.48215438  0.37679139  0.93960037     0.20600
C231        C  0.48555299  0.39908096  0.95178808    -0.32700
C232        C  0.51471885  0.40673934  0.95772791     0.01300
C233        C  0.04774332  0.39548920  0.94954594    -0.24000
C234        C  0.03668771  0.30851695  0.89949188    -0.28600
C235        C  0.00762152  0.29967533  0.89383661     0.07000
C236        C  0.47300165  0.31146352  0.90169267    -0.27300
H237        H  0.08917552  0.32940584  0.91219169     0.11700
H238        H  0.09401609  0.36762580  0.93394880     0.12800
H239        H  0.42722243  0.34158098  0.91675969     0.11900
H240        H  0.43273306  0.37979616  0.93852034     0.11100
H241        H  0.46555946  0.41042074  0.95678676     0.16500
H242        H  0.07009424  0.40336299  0.95343342     0.12400
H243        H  0.05713949  0.29978247  0.89357898     0.15300
H244        H  0.45054772  0.30597420  0.89685650     0.15100
C245        C  0.45180391  0.37044188  0.07153463    -0.17800
C246        C  0.44943425  0.34858378  0.08407478    -0.20000
C247        C  0.47535210  0.33231123  0.08941370     0.20700
C248        C  0.50394672  0.33808409  0.08196281    -0.02900
C249        C  0.50633588  0.36009574  0.06925892    -0.06000
C250        C  0.48012552  0.37641580  0.06406655     0.20900
C251        C  0.04470561  0.37078062  0.06456326     0.19100
C252        C  0.07004452  0.36249972  0.07433363    -0.17500
C253        C  0.06717055  0.34071392  0.08688906    -0.19700
C254        C  0.03889451  0.32677897  0.08992214     0.20600
C255        C  0.03547492  0.30583261  0.10296239    -0.32700
C256        C  0.49933707  0.29455353  0.10758881     0.01300
C257        C  0.47320520  0.31052092  0.10211645    -0.24000
C258        C  0.48275391  0.39849163  0.05157161    -0.28600
C259        C  0.51120008  0.40433262  0.04418386     0.07000
C260        C  0.04707506  0.39350153  0.05237470    -0.27300
H261        H  0.43145673  0.38273803  0.06769724     0.11700
H262        H  0.42730377  0.34448144  0.08964701     0.12800
H263        H  0.09202919  0.37317170  0.07240837     0.11900
H264        H  0.08700448  0.33506110  0.09438496     0.11100
H265        H  0.05498141  0.30032064  0.11074738     0.16500
H266        H  0.45124336  0.30621974  0.10785003     0.12400
H267        H  0.46276614  0.41122393  0.04757445     0.15300
H268        H  0.06872618  0.40478984  0.05035033     0.15100
C269        C  0.43626962  0.10333847  0.07130584    -0.17800
C270        C  0.43668803  0.12448747  0.08419862    -0.20000
C271        C  0.46455960  0.13588153  0.09017188     0.20700
C272        C  0.49226172  0.12605453  0.08299624    -0.02900
C273        C  0.49184205  0.10487656  0.06993544    -0.06000
C274        C  0.46371010  0.09332504  0.06410489     0.20900
C275        C  0.02534064  0.09933664  0.06203635     0.19100
C276        C  0.05272375  0.11222184  0.06762361    -0.17500
C277        C  0.05266957  0.13206857  0.08105577    -0.19700
C278        C  0.02520745  0.13943908  0.08907478     0.20600
C279        C  0.02500219  0.15969604  0.10239084    -0.32700
C280        C  0.49330122  0.16810696  0.10919258     0.01300
C281        C  0.46525112  0.15690292  0.10318345    -0.24000
C282        C  0.46365158  0.07189701  0.05125635    -0.28600
C283        C  0.49136887  0.06221716  0.04420828     0.07000
C284        C  0.02536089  0.07920750  0.04869918    -0.27300
H285        H  0.41447859  0.09478833  0.06698016     0.11700
H286        H  0.41519617  0.13184901  0.08954712     0.12800
H287        H  0.07422294  0.10689249  0.06161838     0.11900
H288        H  0.07412367  0.14175630  0.08513719     0.11100
H289        H  0.04627619  0.16981921  0.10645651     0.16500
H290        H  0.44392455  0.16453439  0.10862548     0.12400
H291        H  0.44225567  0.06262178  0.04678490     0.15300
H292        H  0.04666751  0.07332370  0.04262143     0.15100
C293        C  0.38271306  0.01013799  0.43463003    -0.17800
C294        C  0.36169240  0.00535900  0.42182375    -0.20000
C295        C  0.34626081  0.02987273  0.41442753     0.20700
C296        C  0.35187762  0.05953704  0.42009681    -0.02900
C297        C  0.37310960  0.06437977  0.43309368    -0.06000
C298        C  0.38865993  0.03951381  0.44031463     0.20900
C299        C  0.37911768  0.09405615  0.43867739     0.19100
C300        C  0.36339284  0.11853444  0.43136844    -0.17500
C301        C  0.34234150  0.11372421  0.41849681    -0.19700
C302        C  0.33659971  0.08433819  0.41265250     0.20600
C303        C  0.31614556  0.07929846  0.39941555    -0.32700
C304        C  0.31062129  0.04972153  0.39359541     0.01300
C305        C  0.32559727  0.02517516  0.40134653    -0.24000
C306        C  0.41028042  0.04443754  0.45288777    -0.28600
C307        C  0.41697450  0.07390027  0.45823942     0.07000
C308        C  0.40110229  0.09865790  0.45123289    -0.27300
H309        H  0.39450304  0.99082537  0.44001987     0.11700
H310        H  0.35767331  0.98244708  0.41761144     0.12800
H311        H  0.36758161  0.14146263  0.43550470     0.11900
H312        H  0.33074173  0.13305471  0.41300619     0.11100
H313        H  0.30452401  0.09837465  0.39366385     0.16500
H314        H  0.32152571  0.00232546  0.39702712     0.12400
H315        H  0.42259095  0.02541829  0.45827871     0.14100
H316        H  0.40629904  0.12139420  0.45536530     0.15100
C317        C  0.13077728  0.11071099  0.40424591    -0.17800
C318        C  0.10966973  0.11502283  0.41710393    -0.20000
C319        C  0.10471484  0.09214799  0.42892610     0.20700
C320        C  0.12119711  0.06466677  0.42775280    -0.02900
C321        C  0.14227471  0.06026566  0.41475492    -0.06000
C322        C  0.14720724  0.08338158  0.40292821     0.20900
C323        C  0.15843191  0.03264950  0.41363643     0.19100
C324        C  0.15376913  0.00985665  0.42547655    -0.17500
C325        C  0.13301795  0.01422959  0.43834399    -0.19700
C326        C  0.11658571  0.04144649  0.43955149     0.20600
C327        C  0.09554179  0.04571850  0.45234115    -0.32700
C328        C  0.07907862  0.07291265  0.45361359     0.01300
C329        C  0.08360333  0.09609482  0.44188130    -0.24000
C330        C  0.16852793  0.07866356  0.39009345    -0.28600
C331        C  0.18453990  0.05095562  0.38894355     0.07000
C332        C  0.17915140  0.02817410  0.40075626    -0.27300
H333        H  0.13420736  0.12873841  0.39531562     0.11700
H334        H  0.09723961  0.13627159  0.41781088     0.12800
H335        H  0.16618068  0.98859359  0.42477669     0.11900
H336        H  0.12975886  0.99627154  0.44733709     0.11100
H337        H  0.09173000  0.02783108  0.46133100     0.16500
H338        H  0.07064586  0.11700790  0.44286846     0.12400
H339        H  0.17262994  0.09640320  0.38106871     0.15300
H340        H  0.19154998  0.00688054  0.40012519     0.15100
C341        C  0.37673776  0.05873838  0.29838668    -0.17800
C342        C  0.40300782  0.05340846  0.28895758    -0.20000
C343        C  0.41627546  0.02443124  0.28842556     0.20700
C344        C  0.40313025  0.00062815  0.29765941    -0.02900
C345        C  0.37652502  0.00600401  0.30716483    -0.06000
C346        C  0.36324576  0.03519686  0.30746188     0.20900
C347        C  0.36308067  0.98216094  0.31622431     0.19100
C348        C  0.37016139  0.46352319  0.31819608    -0.17500
C349        C  0.39500825  0.45694564  0.30786671    -0.19700
C350        C  0.40496959  0.47817316  0.29609963     0.20600
C351        C  0.42951344  0.47152305  0.28545110    -0.32700
C352        C  0.45421394  0.98933109  0.27724463     0.01300
C353        C  0.44183411  0.01867712  0.27839630    -0.24000
C354        C  0.33675706  0.04043769  0.31683681    -0.28600
C355        C  0.32318710  0.01691735  0.32596729     0.07000
C356        C  0.33645323  0.98773041  0.32551710    -0.27300
H357        H  0.36685582  0.08128956  0.29850432     0.11700
H358        H  0.41278050  0.07192166  0.28193336     0.12800
H359        H  0.36289911  0.44668087  0.32712979     0.11900
H360        H  0.40636822  0.43517218  0.30904221     0.11100
H361        H  0.44086614  0.44967354  0.28624768     0.16500
H362        H  0.45104893  0.03674894  0.27081690     0.12400
H363        H  0.32680664  0.06296589  0.31709768     0.15300
H364        H  0.32170035  0.48102627  0.33584516     0.15100
C365        C  0.10028420  0.45415924  0.30128251    -0.17800
C366        C  0.13916591  0.95628550  0.30532168    -0.20000
C367        C  0.15134880  0.98540933  0.30720905     0.20700
C368        C  0.13776585  0.01005692  0.29870916    -0.02900
C369        C  0.11142404  0.00544878  0.28880836    -0.06000
C370        C  0.09899341  0.97619262  0.28740268     0.20900
C371        C  0.09718958  0.03013176  0.28062041     0.19100
C372        C  0.11017961  0.05906007  0.28200420    -0.17500
C373        C  0.13632492  0.06362880  0.29180550    -0.19700
C374        C  0.15002702  0.03936756  0.30042691     0.20600
C375        C  0.17519506  0.04397915  0.31107150    -0.32700
C376        C  0.18810706  0.01966215  0.32013186     0.01300
C377        C  0.17634091  0.99035849  0.31780597    -0.24000
C378        C  0.07236533  0.97183808  0.27806780    -0.28600
C379        C  0.05773792  0.99618435  0.26989860     0.07000
C380        C  0.07022896  0.02539438  0.27130525    -0.27300
H381        H  0.09166337  0.43120676  0.30084290     0.11700
H382        H  0.13767160  0.44168724  0.31717477     0.12800
H383        H  0.09988544  0.07825465  0.27567481     0.11900
H384        H  0.14554482  0.08627346  0.29285533     0.11100
H385        H  0.18408012  0.06664908  0.31269596     0.16500
H386        H  0.18613180  0.97141260  0.32459184     0.12400
H387        H  0.05125804  0.44848522  0.28207163     0.15300
H388        H  0.05935738  0.04423241  0.26499592     0.15100
C389        C  0.13031493  0.00551848  0.56122677    -0.17800
C390        C  0.15032686  0.00227039  0.57466787    -0.20000
C391        C  0.15915898  0.02758702  0.58396625     0.20700
C392        C  0.14793398  0.05653637  0.57961613    -0.02900
C393        C  0.12761963  0.05982049  0.56605524    -0.06000
C394        C  0.11869443  0.03412966  0.55687379     0.20900
C395        C  0.11590090  0.08869635  0.56184830     0.19100
C396        C  0.12501554  0.11403871  0.57105204    -0.17500
C397        C  0.14532042  0.11079886  0.58441633    -0.19700
C398        C  0.15680709  0.08213048  0.58887891     0.20600
C399        C  0.17697361  0.07856747  0.60240785    -0.32700
C400        C  0.18825709  0.04968244  0.60683057     0.01300
C401        C  0.17905599  0.02436965  0.59751826    -0.24000
C402        C  0.09780416  0.03740603  0.54374643    -0.28600
C403        C  0.08548191  0.06595412  0.53982073     0.07000
C404        C  0.09482441  0.09156588  0.54874711    -0.27300
H405        H  0.12370696  0.98558528  0.55432154     0.11700
H406        H  0.15882579  0.97988924  0.57783396     0.12800
H407        H  0.11628063  0.13637443  0.56797849     0.11900
H408        H  0.15188872  0.13072387  0.59133660     0.11100
H409        H  0.18396445  0.09824790  0.60942559     0.16500
H410        H  0.18763603  0.00201973  0.60070991     0.12400
H411        H  0.09036761  0.01770943  0.53686720     0.15300
H412        H  0.08512553  0.11353632  0.54568807     0.15100
C413        C  0.37682877  0.00960281  0.56230366    -0.17800
C414        C  0.35565495  0.00527575  0.57506007    -0.20000
C415        C  0.34768196  0.02924554  0.58560494     0.20700
C416        C  0.36164896  0.05773657  0.58347391    -0.02900
C417        C  0.38313514  0.06209865  0.57060280    -0.06000
C418        C  0.39048106  0.03796335  0.55986751     0.20900
C419        C  0.39701544  0.09064056  0.56838050     0.19100
C420        C  0.38958403  0.11438848  0.57920343    -0.17500
C421        C  0.36819978  0.11009636  0.59190106    -0.19700
C422        C  0.35387449  0.08195028  0.59405383     0.20600
C423        C  0.33165538  0.07769595  0.60643390    -0.32700
C424        C  0.31713508  0.04948437  0.60842671     0.01300
C425        C  0.32568381  0.02528697  0.59807441    -0.24000
C426        C  0.41120821  0.04263346  0.54684411    -0.28600
C427        C  0.42482403  0.07105227  0.54444151     0.07000
C428        C  0.41790824  0.09490264  0.55533588    -0.27300
H429        H  0.38235689  0.99078881  0.55425012     0.11700
H430        H  0.33764214  0.48649891  0.57494898     0.12800
H431        H  0.40011117  0.13639888  0.57775430     0.11900
H432        H  0.36267059  0.12890253  0.59996100     0.11100
H433        H  0.32551115  0.09642288  0.61442886     0.16500
H434        H  0.31483180  0.00341901  0.59952530     0.12400
H435        H  0.41692427  0.02417975  0.53856755     0.15300
H436        H  0.42873431  0.11670997  0.55357656     0.15100
C437        C  0.44004893  0.11787638  0.80235510    -0.17800
C438        C  0.44103733  0.09288669  0.79171382    -0.20000
C439        C  0.46893004  0.08307492  0.78493385     0.20700
C440        C  0.99622232  0.09843598  0.78989157    -0.02900
C441        C  0.99677188  0.12293749  0.80109213    -0.06000
C442        C  0.46697878  0.13331751  0.80655775     0.20900
C443        C  0.02443789  0.13830246  0.80413474     0.19100
C444        C  0.05110160  0.12950812  0.79574112    -0.17500
C445        C  0.05047428  0.10552000  0.78448648    -0.19700
C446        C  0.02325606  0.08967725  0.78157316     0.20600
C447        C  0.02288883  0.06450991  0.77099881    -0.32700
C448        C  0.99613591  0.04750951  0.76906568     0.01300
C449        C  0.47052039  0.05688666  0.77510669    -0.24000
C450        C  0.46648813  0.15729482  0.81800501    -0.28600
C451        C  0.99825399  0.17121230  0.82383243     0.07000
C452        C  0.02504371  0.16210492  0.81556514    -0.27300
H453        H  0.41828534  0.12472951  0.80757950     0.11700
H454        H  0.42003010  0.08094305  0.78898559     0.12800
H455        H  0.07250851  0.14112782  0.79792825     0.11900
H456        H  0.07142256  0.09903534  0.77825413     0.11100
H457        H  0.04380782  0.05702836  0.76504350     0.16500
H458        H  0.45010864  0.04362354  0.77287894     0.12400
H459        H  0.44500808  0.16406202  0.82360211     0.15300
H460        H  0.04642547  0.17366927  0.81795164     0.15100
C461        C  0.04944010  0.38916385  0.79439080    -0.17800
C462        C  0.05141333  0.36328852  0.80446884    -0.20000
C463        C  0.02545257  0.34548995  0.80749582     0.20700
C464        C  0.99739453  0.35354596  0.79993253    -0.02900
C465        C  0.99554742  0.37943560  0.78950547    -0.06000
C466        C  0.02156500  0.39757904  0.78693304     0.20900
C467        C  0.46477931  0.38984589  0.78470161     0.19100
C468        C  0.43730952  0.37607009  0.78959761    -0.17500
C469        C  0.43760978  0.35118846  0.80040869    -0.19700
C470        C  0.46538047  0.33961173  0.80657432     0.20600
C471        C  0.46586040  0.31500053  0.81769335    -0.32700
C472        C  0.00038171  0.30349248  0.82197357     0.01300
C473        C  0.02686557  0.32032307  0.81827907    -0.24000
C474        C  0.01926524  0.42391285  0.77707963    -0.28600
C475        C  0.99157174  0.43212297  0.76910531     0.07000
C476        C  0.46457144  0.41533932  0.77419746    -0.27300
H477        H  0.06975079  0.40269524  0.79248528     0.11700
H478        H  0.07318359  0.35748600  0.81012640     0.12800
H479        H  0.41552309  0.38464999  0.78512508     0.11900
H480        H  0.41606932  0.34112158  0.80403652     0.11100
H481        H  0.44447460  0.30483277  0.82151989     0.16500
H482        H  0.04835499  0.31453634  0.82426338     0.12400
H483        H  0.03924110  0.43807764  0.77552128     0.15300
H484        H  0.44267242  0.42464780  0.77050903     0.15100
C485        C  0.11742715  0.95508890  0.70677829    -0.17800
C486        C  0.14275592  0.96034295  0.69662520    -0.20000
C487        C  0.15080280  0.98995606  0.69209468     0.20700
C488        C  0.13328620  0.01456357  0.69802138    -0.02900
C489        C  0.10762880  0.00922835  0.70834425    -0.06000
C490        C  0.09968409  0.97934336  0.71266078     0.20900
C491        C  0.08989589  0.03370258  0.71426307     0.19100
C492        C  0.09809653  0.06335209  0.70975526    -0.17500
C493        C  0.12347547  0.06864507  0.69951286    -0.19700
C494        C  0.14125963  0.04441524  0.69354667     0.20600
C495        C  0.16658095  0.04941654  0.68304795    -0.32700
C496        C  0.18387721  0.02488178  0.67681392     0.01300
C497        C  0.17582054  0.99525503  0.68157674    -0.24000
C498        C  0.07417068  0.97406557  0.72277513    -0.28600
C499        C  0.05645110  0.99819579  0.72910725     0.07000
C500        C  0.06448388  0.02807594  0.72462759    -0.27300
H501        H  0.08939283  0.43015060  0.69988038     0.11700
H502        H  0.13473617  0.43875568  0.68275085     0.12800
H503        H  0.08484088  0.08250049  0.71413766     0.11900
H504        H  0.12914309  0.09174648  0.69621651     0.11100
H505        H  0.17240730  0.07234207  0.67945896     0.16500
H506        H  0.18889379  0.97615735  0.67695542     0.12400
H507        H  0.04892832  0.44952678  0.71788217     0.15300
H508        H  0.05144621  0.04701637  0.72941641     0.15100
C509        C  0.37180033  0.96049282  0.68869473    -0.17800
C510        C  0.38579461  0.45377163  0.69881777    -0.20000
C511        C  0.41249475  0.97951635  0.70636576     0.20700
C512        C  0.40094690  0.00918843  0.70443457    -0.02900
C513        C  0.37451973  0.01437961  0.69460804    -0.06000
C514        C  0.35981834  0.98984990  0.68681613     0.20900
C515        C  0.36271090  0.04399505  0.69268329     0.19100
C516        C  0.37775296  0.06817848  0.70045842    -0.17500
C517        C  0.40384796  0.06300711  0.71027492    -0.19700
C518        C  0.41555361  0.03354944  0.71246907     0.20600
C519        C  0.44107988  0.02786451  0.72282307    -0.32700
C520        C  0.45210908  0.99807679  0.72521799     0.01300
C521        C  0.42524274  0.47288080  0.71742343    -0.24000
C522        C  0.33339292  0.99500012  0.67727742    -0.28600
C523        C  0.32119447  0.02439462  0.67530913     0.07000
C524        C  0.33613201  0.04883819  0.68304397    -0.27300
H525        H  0.34916803  0.43965962  0.68292412     0.11700
H526        H  0.39440215  0.43086044  0.70029364     0.12800
H527        H  0.36917731  0.09111258  0.69906328     0.11900
H528        H  0.41473767  0.08205895  0.71626517     0.11100
H529        H  0.45152446  0.04641994  0.72947819     0.16500
H530        H  0.43395775  0.45000345  0.71885175     0.12400
H531        H  0.32241713  0.97599311  0.67127125     0.15300
H532        H  0.32724773  0.07162628  0.68146104     0.15100
C533        C  0.50295947  0.96187983  0.75951432     0.86500
C534        C  0.47655854  0.96492009  0.74684630    -0.53700
C535        C  0.46335557  0.49004741  0.73880909     0.09400
C536        C  0.49214846  0.50956872  0.74185230     0.20400
C537        C  0.02858952  0.96598257  0.75003659    -0.54500
C538        C  0.01796829  0.49013616  0.73708385     0.09500
C539        C  0.50071211  0.99097153  0.76977812    -0.54000
C540        C  0.99196388  0.51658321  0.75984855     0.10100
H541        H  0.45854361  0.94853428  0.74534198     0.14600
H542        H  0.49179193  0.53123051  0.73489979     0.00300
H543        H  0.04693657  0.94937760  0.75066898     0.14900
H544        H  0.49883760  0.99095552  0.78319359     0.14700
O545        O  0.27273233  0.56803419  0.62820988    -0.71800
O546        O  0.21002065  0.55345871  0.66027665    -0.72000
O547        O  0.27248453  0.55406858  0.66076586    -0.71900
O548        O  0.21095641  0.56705547  0.62768116    -0.71900
O549        O  0.21184221  0.51907651  0.62199631    -0.71800
O550        O  0.28278000  0.00734078  0.65641265    -0.71800
O551        O  0.22083304  0.00755618  0.65695198    -0.71800
O552        O  0.27333334  0.52021414  0.62218694    -0.72000
V553        V  0.24155012  0.55971928  0.64418915     1.35200
V554        V  0.25138861  0.01435119  0.64054161     1.35200
C555        C  0.28354270  0.54663602  0.61955803     0.77500
C556        C  0.19928458  0.52714933  0.66257535     0.77500
C557        C  0.28403784  0.52796428  0.66301251     0.77400
C558        C  0.20107204  0.54518484  0.61909195     0.77400
O559        O  0.20912666  0.57327629  0.36793720    -0.71800
O560        O  0.27412878  0.55784636  0.33722606    -0.72000
O561        O  0.21181679  0.55800884  0.33567564    -0.71900
O562        O  0.27093634  0.57309129  0.36949358    -0.71900
O563        O  0.26875935  0.52583540  0.37687002    -0.71800
O564        O  0.22135581  0.00366166  0.34224138    -0.71800
O565        O  0.28305082  0.00209616  0.34434008    -0.71800
O566        O  0.20796461  0.52529873  0.37377177    -0.72000
V567        V  0.24152561  0.56469303  0.35264368     1.35200
V568        V  0.25074720  0.01153000  0.35915459     1.35200
C569        C  0.19760739  0.55170948  0.37620388     0.77500
C570        C  0.28628069  0.53174543  0.33627411     0.77500
C571        C  0.20194877  0.53144276  0.33331264     0.77400
C572        C  0.27951593  0.55199095  0.37913755     0.77400
N573        N  0.49804330  0.98381285  0.02602933    -0.36600
N574        N  0.51062851  0.93824595  0.00041264    -0.57200
N575        N  0.50938565  0.98591784  0.97536865    -0.36600
N576        N  0.51853337  0.53096157  0.00115239    -0.57200
C577        C  0.50504887  0.95958915  0.03565552     0.27000
C578        C  0.52025822  0.50778466  0.03625462     0.27000
C579        C  0.51257531  0.96164335  0.96530842     0.27000
C580        C  0.52324556  0.50956058  0.96632088     0.27000
C581        C  0.50927663  0.91964030  0.01369611     0.35600
C582        C  0.51169382  0.92039919  0.98685240     0.35600
C583        C  0.51509078  0.54860180  0.01468800     0.35600
C584        C  0.51515077  0.54930076  0.98778792     0.35600
C585        C  0.50770213  0.96882630  0.05200528    -0.21900
C586        C  0.52644276  0.49819800  0.05231733    -0.21900
C587        C  0.51431972  0.97158875  0.94902510    -0.21900
C588        C  0.53264325  0.50044161  0.95070822    -0.21900
C589        C  0.51023710  0.88971215  0.00858810    -0.22900
C590        C  0.51168805  0.89018362  0.99161348    -0.22900
C591        C  0.51031519  0.57844762  0.00988396    -0.22900
C592        C  0.51030232  0.57887597  0.99287003    -0.22900
C593        C  0.50784841  0.92909683  0.03041015    -0.18300
C594        C  0.51704277  0.53851002  0.03135134    -0.18300
C595        C  0.51811435  0.54007830  0.97107560    -0.18300
C596        C  0.51265634  0.93069322  0.97020129    -0.18300
H597        H  0.51266311  0.95496069  0.06276284     0.14600
H598        H  0.53061883  0.51219709  0.06305766     0.14600
H599        H  0.51661872  0.95792113  0.93799627     0.14600
H600        H  0.53823015  0.51472798  0.94023967     0.14600
H601        H  0.50983482  0.86959062  0.01627325     0.12900
H602        H  0.51261648  0.87046189  0.98370494     0.12900
H603        H  0.50724312  0.59794224  0.01780856     0.12900
H604        H  0.50738820  0.59876048  0.98514008     0.12900
H605        H  0.49130520  0.98308619  0.01370314     0.26200
H606        H  0.50750977  0.98547221  0.98811907     0.26200
O607        O  0.01975913  0.76487180  0.16101209    -0.71800
O608        O  0.02640979  0.70390261  0.12818433    -0.72000
O609        O  0.02531568  0.76464347  0.12787832    -0.71900
O610        O  0.02074374  0.70371239  0.16137580    -0.71900
O611        O  0.47256010  0.70400154  0.15947718    -0.71800
O612        O  0.47680898  0.76426158  0.12590779    -0.71800
O613        O  0.47691901  0.70342305  0.12621036    -0.71800
O614        O  0.47236135  0.76504381  0.15907246    -0.72000
V615        V  0.02204998  0.73426144  0.14462328     1.35200
V616        V  0.47562525  0.73413841  0.14271508     1.35200
C617        C  0.49650164  0.77545416  0.16554215     0.77500
C618        C  0.50250754  0.69325696  0.12137182     0.77500
C619        C  0.50224468  0.77472540  0.12118070     0.77400
C620        C  0.49655780  0.69359512  0.16625931     0.77400
C621        C  0.99942577  0.95870669  0.24050594     0.86500
C622        C  0.02999173  0.96458248  0.24953425    -0.53700
C623        C  0.02057994  0.48675274  0.26164132     0.09400
C624        C  0.99174772  0.50620503  0.25859565     0.20400
C625        C  0.47762806  0.95702796  0.25517770    -0.54500
C626        C  0.46480120  0.48550412  0.26211376     0.09500
C627        C  0.99324517  0.98818191  0.23081732    -0.54000
C628        C  0.98975420  0.50997714  0.23964978     0.10100
H629        H  0.05012609  0.95047952  0.24887601     0.14600
H630        H  0.99150118  0.52793472  0.26547838     0.00300
H631        H  0.46063123  0.93941070  0.25676276     0.14900
H632        H  0.98904227  0.98869749  0.21755547     0.14700
O633        O  0.48600891  0.76805807  0.84159146    -0.71800
O634        O  0.48716774  0.70345855  0.87310957    -0.72000
O635        O  0.48696893  0.76399604  0.87501689    -0.71900
O636        O  0.48632984  0.70689979  0.83969714    -0.71900
O637        O  0.02893372  0.70875590  0.83854885    -0.71800
O638        O  0.03160340  0.76553894  0.87414928    -0.71800
O639        O  0.03338207  0.70482930  0.87181232    -0.71800
O640        O  0.02799030  0.77003330  0.84119213    -0.72000
V641        V  0.48760051  0.73561648  0.85728277     1.35200
V642        V  0.02946198  0.73718153  0.85638484     1.35200
C643        C  0.00248216  0.78091676  0.83671956     0.77500
C644        C  0.00980698  0.69349723  0.87835124     0.77500
C645        C  0.00710954  0.77519917  0.88067996     0.77400
C646        C  0.00371277  0.69819127  0.83335929     0.77400
N647        N  0.99032247  0.58687488  0.47296980    -0.36600
N648        N  0.44511337  0.58188326  0.49850822    -0.57200
N649        N  0.99102100  0.58287849  0.52415401    -0.36600
N650        N  0.03771194  0.57911376  0.49816222    -0.57200
C651        C  0.46612800  0.57875874  0.46318097     0.27000
C652        C  0.01460720  0.57886639  0.46349875     0.27000
C653        C  0.46840998  0.57510864  0.53302832     0.27000
C654        C  0.01577070  0.57525725  0.53344627     0.27000
C655        C  0.42649657  0.58555135  0.48523307     0.35600
C656        C  0.42732509  0.58474309  0.51214101     0.35600
C657        C  0.05590636  0.58241419  0.48472574     0.35600
C658        C  0.05631192  0.57943420  0.51159729     0.35600
C659        C  0.47470683  0.56952167  0.44743428    -0.21900
C660        C  0.00436859  0.56865975  0.44825263    -0.21900
C661        C  0.47822080  0.56454728  0.54834671    -0.21900
C662        C  0.00632826  0.56808087  0.54937108    -0.21900
C663        C  0.39673614  0.59074939  0.49046430    -0.22900
C664        C  0.39726559  0.59022031  0.50748621    -0.22900
C665        C  0.08620605  0.58470399  0.48965026    -0.22900
C666        C  0.08648036  0.58266728  0.50664055    -0.22900
C667        C  0.43538861  0.58187218  0.46848538    -0.18300
C668        C  0.04585633  0.58083060  0.46804614    -0.18300
C669        C  0.04679044  0.57545895  0.52824126    -0.18300
C670        C  0.43730145  0.57989634  0.52866204    -0.18300
H671        H  0.45992155  0.56311894  0.43727165     0.14600
H672        H  0.01806775  0.56053720  0.43802294     0.14600
H673        H  0.46423852  0.55834043  0.55885572     0.14600
H674        H  0.02051519  0.56146980  0.55979219     0.14600
H675        H  0.37661948  0.59404457  0.48280694     0.12900
H676        H  0.37765415  0.59293956  0.51551422     0.12900
H677        H  0.10610654  0.58705206  0.48180645     0.12900
H678        H  0.10663730  0.58331304  0.51444774     0.12900
H679        H  0.99128319  0.59797456  0.48428381     0.26200
H680        H  0.99152485  0.59183787  0.51229666     0.26200
C681        C  0.44281935  0.88256589  0.20657033    -0.17800
C682        C  0.44179960  0.85698326  0.19628754    -0.20000
C683        C  0.46863933  0.84065102  0.19263462     0.20700
C684        C  0.49660736  0.84993697  0.19970182    -0.02900
C685        C  0.49759036  0.87564475  0.21005931    -0.06000
C686        C  0.47068908  0.89227918  0.21343262     0.20900
C687        C  0.02228962  0.88505454  0.21734764     0.19100
C688        C  0.04815391  0.86640700  0.21548436    -0.17500
C689        C  0.04721164  0.84123668  0.20511901    -0.19700
C690        C  0.02036835  0.83418117  0.19646133     0.20600
C691        C  0.01964282  0.80923796  0.18583132    -0.32700
C692        C  0.49564098  0.80018946  0.17790312     0.01300
C693        C  0.46827221  0.81567205  0.18179384    -0.24000
C694        C  0.47228298  0.91831283  0.22351253    -0.28600
C695        C  0.99806581  0.93007953  0.22955605     0.07000
C696        C  0.02356210  0.91055405  0.22753994    -0.27300
H697        H  0.42183261  0.89488617  0.20905057     0.11700
H698        H  0.42005962  0.85018020  0.19104106     0.12800
H699        H  0.06925315  0.87139725  0.22198394     0.11900
H700        H  0.06757125  0.82734472  0.20381635     0.11100
H701        H  0.04013220  0.79555578  0.18439874     0.16500
H702        H  0.44693119  0.80879558  0.17610273     0.12400
H703        H  0.45163893  0.93118565  0.22602473     0.15300
H704        H  0.04505040  0.91451253  0.23357866     0.15100
C705        C  0.04744633  0.61810273  0.20235791    -0.17800
C706        C  0.04666629  0.59268766  0.21276573    -0.20000
C707        C  0.01869895  0.57918170  0.21691050     0.20700
C708        C  0.49054745  0.59491193  0.21204804    -0.02900
C709        C  0.49160577  0.62070892  0.20165866    -0.06000
C710        C  0.02027620  0.63051172  0.19587212     0.20900
C711        C  0.46521699  0.62992231  0.19284718     0.19100
C712        C  0.43790041  0.61369779  0.19474147    -0.17500
C713        C  0.43698840  0.58785117  0.20479349    -0.19700
C714        C  0.46326489  0.57803992  0.21331709     0.20600
C715        C  0.46301072  0.55123686  0.22271574    -0.32700
C716        C  0.98983651  0.53939674  0.23080872     0.01300
C717        C  0.01780218  0.55334251  0.22711988    -0.24000
C718        C  0.02100048  0.65571201  0.18517728    -0.28600
C719        C  0.49464859  0.66967874  0.17918200     0.07000
C720        C  0.46682022  0.65454278  0.18186312    -0.27300
H721        H  0.06937658  0.62797579  0.19930446     0.11700
H722        H  0.06799780  0.58349123  0.21751370     0.12800
H723        H  0.41740100  0.62057417  0.18812084     0.11900
H724        H  0.41581875  0.57529543  0.20572491     0.11100
H725        H  0.44247670  0.53758063  0.22328091     0.16500
H726        H  0.03890129  0.54347954  0.23181325     0.12400
H727        H  0.04285789  0.66559063  0.18195724     0.15300
H728        H  0.44660087  0.66115545  0.17490672     0.15100
C729        C  0.07685695  0.61428346  0.93131822    -0.17800
C730        C  0.07401669  0.63474229  0.91805908    -0.20000
C731        C  0.04517040  0.64146253  0.91117848     0.20700
C732        C  0.01897000  0.62726396  0.91768376    -0.02900
C733        C  0.02183275  0.60657736  0.93106858    -0.06000
C734        C  0.05091021  0.60009461  0.93796903     0.20900
C735        C  0.48745744  0.59503295  0.93842615     0.19100
C736        C  0.45939635  0.60466307  0.93164030    -0.17500
C737        C  0.45859216  0.62571740  0.91859976    -0.19700
C738        C  0.48583301  0.63750744  0.91205754     0.20600
C739        C  0.48530255  0.65834867  0.89880937    -0.32700
C740        C  0.01292319  0.66969388  0.89144617     0.01300
C741        C  0.04200884  0.66240059  0.89807588    -0.24000
C742        C  0.05342986  0.57944036  0.95129245    -0.28600
C743        C  0.51690031  0.56374268  0.95785141     0.07000
C744        C  0.48861560  0.57333830  0.95124635    -0.27300
H745        H  0.09937389  0.60960172  0.93639177     0.11700
H746        H  0.09441294  0.64543782  0.91323117     0.12800
H747        H  0.43804719  0.59577184  0.93635678     0.11900
H748        H  0.43663357  0.63264747  0.91356054     0.11100
H749        H  0.46352130  0.66551831  0.89363222     0.16500
H750        H  0.06221280  0.67350117  0.89327304     0.12400
H751        H  0.07568535  0.57402071  0.95650494     0.15300
H752        H  0.46763407  0.56368506  0.95601905     0.15100
C753        C  0.06330216  0.83745393  0.92175724    -0.17800
C754        C  0.06346370  0.85902173  0.93444003    -0.20000
C755        C  0.03603200  0.87235299  0.93983543     0.20700
C756        C  0.00813621  0.86391453  0.93232822    -0.02900
C757        C  0.00799584  0.84219069  0.91948985    -0.06000
C758        C  0.03571048  0.82884562  0.91420177     0.20900
C759        C  0.48521043  0.82420975  0.91621201     0.19100
C760        C  0.45805177  0.83205677  0.92444557    -0.17500
C761        C  0.45803533  0.85461240  0.93659185    -0.19700
C762        C  0.48519692  0.86964341  0.94076897     0.20600
C763        C  0.48531826  0.89260880  0.95275129    -0.32700
C764        C  0.51267376  0.90732005  0.95697359     0.01300
C765        C  0.03597112  0.89400671  0.95255332    -0.24000
C766        C  0.03533705  0.80707757  0.90151002    -0.28600
C767        C  0.00757929  0.79831347  0.89406130     0.07000
C768        C  0.48517575  0.80257336  0.90348079    -0.27300
H769        H  0.08479788  0.82746527  0.91786617     0.11700
H770        H  0.08507546  0.86524516  0.94005256     0.12800
H771        H  0.43672259  0.82099595  0.92134768     0.11900
H772        H  0.43671553  0.86044085  0.94264807     0.11100
H773        H  0.46425550  0.89895064  0.95893786     0.16500
H774        H  0.05730996  0.90080649  0.95828765     0.12400
H775        H  0.05664638  0.79681397  0.89751407     0.15300
H776        H  0.46390112  0.79174014  0.90002286     0.15100
C777        C  0.45145424  0.85748291  0.06543506    -0.17800
C778        C  0.45051401  0.83648466  0.07839625    -0.20000
C779        C  0.47731715  0.82856647  0.08701281     0.20700
C780        C  0.50529754  0.84232705  0.08275333    -0.02900
C781        C  0.50623368  0.86365637  0.06970847    -0.06000
C782        C  0.47918501  0.87099181  0.06093066     0.20900
C783        C  0.03385615  0.87494605  0.06361719     0.19100
C784        C  0.06110530  0.86263058  0.07005718    -0.17500
C785        C  0.06028911  0.84055727  0.08256907    -0.19700
C786        C  0.03220434  0.83032851  0.08885241     0.20600
C787        C  0.03109662  0.80794530  0.10130130    -0.32700
C788        C  0.50351086  0.79838491  0.10813621     0.01300
C789        C  0.47660197  0.80687263  0.09969235    -0.24000
C790        C  0.48027944  0.89181444  0.04785342    -0.28600
C791        C  0.50796485  0.90549578  0.04348664     0.07000
C792        C  0.03434359  0.89671069  0.05085380    -0.27300
H793        H  0.43049135  0.86306893  0.05888320     0.11700
H794        H  0.42883616  0.82622065  0.08158935     0.12800
H795        H  0.08306935  0.86998424  0.06536928     0.11900
H796        H  0.08165213  0.83137377  0.08728062     0.11100
H797        H  0.05223564  0.79845460  0.10614357     0.16500
H798        H  0.45505242  0.79625341  0.10281986     0.12400
H799        H  0.45955820  0.89776195  0.04114523     0.15300
H800        H  0.05596046  0.90429941  0.04579953     0.15100
C801        C  0.45581608  0.59691086  0.07155770    -0.17800
C802        C  0.45372196  0.61855391  0.08413604    -0.20000
C803        C  0.47997211  0.63362987  0.08975058     0.20700
C804        C  0.50863582  0.62679918  0.08260792    -0.02900
C805        C  0.51076552  0.60494603  0.06991841    -0.06000
C806        C  0.48419516  0.58995727  0.06437401     0.20900
C807        C  0.04474354  0.59771773  0.06352126     0.19100
C808        C  0.07049654  0.61268090  0.06984324    -0.17500
C809        C  0.06734849  0.63421868  0.08242445    -0.19700
C810        C  0.03838701  0.64119238  0.08892964     0.20600
C811        C  0.03507735  0.66263477  0.10162968    -0.32700
C812        C  0.50450020  0.67024981  0.10806070     0.01300
C813        C  0.47807778  0.65535622  0.10238891    -0.24000
C814        C  0.48651159  0.56830977  0.05175300    -0.28600
C815        C  0.51499920  0.56155026  0.04463500     0.07000
C816        C  0.04769791  0.57597443  0.05093495    -0.27300
H817        H  0.43521656  0.58559911  0.06744574     0.11700
H818        H  0.43154328  0.62349566  0.08948345     0.12800
H819        H  0.09311237  0.60769130  0.06507093     0.11900
H820        H  0.08761389  0.64539792  0.08709511     0.11100
H821        H  0.05520633  0.67394680  0.10639329     0.16500
H822        H  0.45605490  0.66053712  0.10787174     0.12400
H823        H  0.46623778  0.55667770  0.04740980     0.15300
H824        H  0.07007721  0.57052798  0.04596586     0.15100
C825        C  0.35471390  0.52080808  0.44209282    -0.17800
C826        C  0.33291260  0.51665272  0.42961237    -0.20000
C827        C  0.32809996  0.53905564  0.41749642     0.20700
C828        C  0.34552090  0.56585536  0.41788414    -0.02900
C829        C  0.36751332  0.57007321  0.43049726    -0.06000
C830        C  0.37197964  0.54747639  0.44269909     0.20900
C831        C  0.38508112  0.59681809  0.43086156     0.19100
C832        C  0.38072166  0.61889844  0.41852039    -0.17500
C833        C  0.35886295  0.61473940  0.40603980    -0.19700
C834        C  0.34104150  0.58839151  0.40565414     0.20600
C835        C  0.31902601  0.58406653  0.39318823    -0.32700
C836        C  0.30173706  0.55731025  0.39266880     0.01300
C837        C  0.30635279  0.53498961  0.40492519    -0.24000
C838        C  0.39371852  0.55188320  0.45524280    -0.28600
C839        C  0.41103810  0.57854051  0.45574483     0.07000
C840        C  0.40676625  0.60088828  0.44351200    -0.27300
H841        H  0.35802147  0.50317954  0.45130226     0.11700
H842        H  0.31981535  0.49588342  0.42943015     0.12800
H843        H  0.39416988  0.63944582  0.41854587     0.11900
H844        H  0.35589072  0.63215716  0.39668072     0.11100
H845        H  0.31572194  0.60128520  0.38374169     0.16500
H846        H  0.29306409  0.51432550  0.40466071     0.12400
H847        H  0.39753324  0.53447641  0.46453774     0.14100
H848        H  0.42056855  0.62121665  0.44381202     0.15100
C849        C  0.11969803  0.61596631  0.40489619    -0.17800
C850        C  0.09879553  0.62004707  0.41789294    -0.20000
C851        C  0.09403771  0.59700125  0.42965061     0.20700
C852        C  0.11021521  0.56941374  0.42811815    -0.02900
C853        C  0.13093558  0.56514427  0.41487131    -0.06000
C854        C  0.13604595  0.58863267  0.40328833     0.20900
C855        C  0.14667012  0.53736291  0.41330771     0.19100
C856        C  0.14166130  0.51414957  0.42487821    -0.17500
C857        C  0.12146017  0.51847112  0.43805153    -0.19700
C858        C  0.10571464  0.54600276  0.43982382     0.20600
C859        C  0.08539355  0.55037127  0.45303244    -0.32700
C860        C  0.06912246  0.57767031  0.45463859     0.01300
C861        C  0.07336807  0.60088425  0.44286089    -0.24000
C862        C  0.15757561  0.58436792  0.39045993    -0.28600
C863        C  0.17357171  0.55666881  0.38897218     0.07000
C864        C  0.16748633  0.53325668  0.40034912    -0.27300
H865        H  0.12310501  0.63423200  0.39610986     0.11700
H866        H  0.08649449  0.64133906  0.41881184     0.12800
H867        H  0.15357862  0.49266890  0.42381232     0.11900
H868        H  0.11814373  0.50023427  0.44686701     0.11100
H869        H  0.08170813  0.53233934  0.46194626     0.16500
H870        H  0.06047326  0.62180903  0.44399136     0.12400
H871        H  0.16193974  0.60252518  0.38172710     0.15300
H872        H  0.17963565  0.51186766  0.39940988     0.15100
C873        C  0.35943996  0.56245891  0.29218437    -0.17800
C874        C  0.38458858  0.55606215  0.28201134    -0.20000
C875        C  0.39998557  0.52815366  0.28323981     0.20700
C876        C  0.38992794  0.50648083  0.29488404    -0.02900
C877        C  0.36462411  0.51302360  0.30523214    -0.06000
C878        C  0.34921470  0.54111434  0.30383598     0.20900
C879        C  0.35464529  0.49137194  0.31688246     0.19100
C880        C  0.37660128  0.95323240  0.31585011    -0.17500
C881        C  0.40294166  0.94789498  0.30641231    -0.19700
C882        C  0.41620390  0.97136399  0.29714168     0.20600
C883        C  0.44171287  0.96592582  0.28698188    -0.32700
C884        C  0.43965168  0.49302822  0.27381552     0.01300
C885        C  0.42501082  0.52141758  0.27292390    -0.24000
C886        C  0.32377788  0.54727593  0.31401912    -0.28600
C887        C  0.31336811  0.52562057  0.32553702     0.07000
C888        C  0.32920172  0.49780201  0.32692443    -0.27300
H889        H  0.34792355  0.58412823  0.29090426     0.11700
H890        H  0.39191100  0.57292991  0.27310725     0.12800
H891        H  0.36669343  0.93467048  0.32278097     0.11900
H892        H  0.41272392  0.92530082  0.30620240     0.11100
H893        H  0.45140546  0.94331601  0.28634624     0.16500
H894        H  0.43255525  0.53791548  0.26385337     0.12400
H895        H  0.31193094  0.56880633  0.31286748     0.15300
H896        H  0.32629659  0.96942151  0.33255406     0.15100
C897        C  0.11324540  0.95171370  0.29548670    -0.17800
C898        C  0.12658370  0.46012206  0.31056051    -0.20000
C899        C  0.13848517  0.48954183  0.31124366     0.20700
C900        C  0.12356831  0.51329609  0.30267102    -0.02900
C901        C  0.09699020  0.50726162  0.29327161    -0.06000
C902        C  0.08553290  0.47750268  0.29248754     0.20900
C903        C  0.08210868  0.53088871  0.28452775     0.19100
C904        C  0.09370461  0.56042144  0.28553239    -0.17500
C905        C  0.12000112  0.56643227  0.29491592    -0.19700
C906        C  0.13522379  0.54301498  0.30346109     0.20600
C907        C  0.16161171  0.54880577  0.31295348    -0.32700
C908        C  0.17639558  0.52522000  0.32168879     0.01300
C909        C  0.16481232  0.49561274  0.32054984    -0.24000
C910        C  0.05990980  0.47142788  0.28264577    -0.28600
C911        C  0.04567998  0.49454483  0.27331281     0.07000
C912        C  0.05639649  0.52440000  0.27464343    -0.27300
H913        H  0.10408124  0.92904852  0.29438734     0.11700
H914        H  0.14942102  0.93707846  0.31165941     0.12800
H915        H  0.08256371  0.57885850  0.27895120     0.11900
H916        H  0.12850247  0.58941511  0.29543961     0.11100
H917        H  0.17020090  0.57172995  0.31383650     0.16500
H918        H  0.17583644  0.47727314  0.32728532     0.12400
H919        H  0.06279020  0.94928416  0.27726389     0.15300
H920        H  0.04552303  0.54230527  0.26750692     0.15100
C921        C  0.11329371  0.50809162  0.56207738    -0.17800
C922        C  0.13440866  0.50390270  0.57497312    -0.20000
C923        C  0.14539724  0.52878639  0.58395599     0.20700
C924        C  0.13499531  0.55818931  0.57990817    -0.02900
C925        C  0.11365098  0.56242903  0.56689397    -0.06000
C926        C  0.10275769  0.53724335  0.55793103     0.20900
C927        C  0.10315547  0.59186208  0.56289820     0.19100
C928        C  0.11418426  0.61671700  0.57185749    -0.17500
C929        C  0.13539616  0.61252079  0.58469251    -0.19700
C930        C  0.14591519  0.58337380  0.58884712     0.20600
C931        C  0.16721779  0.57901236  0.60173178    -0.32700
C932        C  0.17784934  0.54977401  0.60581153     0.01300
C933        C  0.16668072  0.52478151  0.59685791    -0.24000
C934        C  0.08139663  0.54169144  0.54508131    -0.28600
C935        C  0.07074579  0.57095811  0.54118076     0.07000
C936        C  0.08169667  0.59590757  0.55009346    -0.27300
H937        H  0.10517189  0.48850390  0.55535476     0.11700
H938        H  0.14217008  0.48116369  0.57791644     0.12800
H939        H  0.10638281  0.63944995  0.56893926     0.11900
H940        H  0.14355585  0.63211417  0.59139438     0.11100
H941        H  0.17567923  0.59842070  0.60849720     0.16500
H942        H  0.17466768  0.50213546  0.59986491     0.12400
H943        H  0.07268763  0.52246670  0.53824487     0.15300
H944        H  0.07325255  0.61840144  0.54709722     0.15100
C945        C  0.36770165  0.51375895  0.56025355    -0.17800
C946        C  0.34691058  0.50897332  0.57313218    -0.20000
C947        C  0.33800119  0.53291762  0.58347191     0.20700
C948        C  0.35043478  0.56198327  0.58090383    -0.02900
C949        C  0.37165802  0.56680632  0.56790876    -0.06000
C950        C  0.38011610  0.54255651  0.55749075     0.20900
C951        C  0.38436177  0.59579252  0.56533321     0.19100
C952        C  0.37565781  0.61966319  0.57581971    -0.17500
C953        C  0.35442451  0.61493507  0.58859872    -0.19700
C954        C  0.34156434  0.58618267  0.59124491     0.20600
C955        C  0.31991356  0.58117986  0.60393742    -0.32700
C956        C  0.30716898  0.55217743  0.60650301     0.01300
C957        C  0.31668890  0.52822063  0.59622438    -0.24000
C958        C  0.40092683  0.54740757  0.54453871    -0.28600
C959        C  0.41377177  0.57608306  0.54190420     0.07000
C960        C  0.40553395  0.60023496  0.55237235    -0.27300
H961        H  0.37405884  0.49487986  0.55242461     0.11700
H962        H  0.34526274  0.98321412  0.57657099     0.12800
H963        H  0.38517248  0.64206290  0.57409444     0.11900
H964        H  0.34802712  0.63382218  0.59641144     0.11100
H965        H  0.31292088  0.59986217  0.61175661     0.16500
H966        H  0.30718500  0.50582110  0.59799924     0.12400
H967        H  0.40758060  0.52876716  0.53659276     0.15300
H968        H  0.41569686  0.62230544  0.55043727     0.15100
C969        C  0.45545916  0.63665219  0.79149148    -0.17800
C970        C  0.45335959  0.61150609  0.78101211    -0.20000
C971        C  0.47761007  0.59065219  0.77987637     0.20700
C972        C  0.99930714  0.59998599  0.78710028    -0.02900
C973        C  0.00084002  0.62563732  0.79758849    -0.06000
C974        C  0.48199441  0.64168699  0.80092008     0.20900
C975        C  0.02725988  0.63062846  0.80727891     0.19100
C976        C  0.05191796  0.61026130  0.80631489    -0.17500
C977        C  0.05011056  0.58458908  0.79628796    -0.19700
C978        C  0.02382256  0.57905218  0.78679755     0.20600
C979        C  0.02136150  0.55247544  0.77742089    -0.32700
C980        C  0.99503877  0.54662918  0.76799324     0.01300
C981        C  0.47514837  0.56466300  0.76986819    -0.24000
C982        C  0.48384546  0.66640238  0.81184355    -0.28600
C983        C  0.00291695  0.67454910  0.82019187     0.07000
C984        C  0.02832187  0.65527677  0.81819904    -0.27300
H985        H  0.43618730  0.65210422  0.79229595     0.11700
H986        H  0.43253069  0.60813184  0.77396458     0.12800
H987        H  0.07237493  0.61378510  0.81365398     0.11900
H988        H  0.06918871  0.56882850  0.79611609     0.11100
H989        H  0.03976237  0.53590332  0.77767261     0.16500
H990        H  0.45433716  0.56056578  0.76290597     0.12400
H991        H  0.46442039  0.68158634  0.81307713     0.15300
H992        H  0.04853386  0.65859715  0.82577963     0.15100
C993        C  0.04551678  0.90340445  0.80701701    -0.17800
C994        C  0.04595925  0.87831914  0.81771300    -0.20000
C995        C  0.02378731  0.85552693  0.81629743     0.20700
C996        C  0.00100360  0.85804078  0.80396415    -0.02900
C997        C  0.00091406  0.88310556  0.79298635    -0.06000
C998        C  0.02308884  0.90601746  0.79458638     0.20900
C999        C  0.48127595  0.88610325  0.78144258     0.19100
C1000       C  0.45741314  0.86487768  0.78167024    -0.17500
C1001       C  0.45832900  0.84007650  0.79253173    -0.19700
C1002       C  0.48329159  0.83574768  0.80327428     0.20600
C1003       C  0.48440032  0.81080501  0.81418734    -0.32700
C1004       C  0.00137732  0.80773240  0.82564114     0.01300
C1005       C  0.02406827  0.83018941  0.82689886    -0.24000
C1006       C  0.02230340  0.93117574  0.78381550    -0.28600
C1007       C  0.99974487  0.93389362  0.77130096     0.07000
C1008       C  0.48020648  0.91128116  0.77069220    -0.27300
H1009       H  0.06278104  0.92073545  0.80844624     0.11700
H1010       H  0.06360716  0.87679444  0.82713437     0.12800
H1011       H  0.43788902  0.86753673  0.77348552     0.11900
H1012       H  0.43951300  0.82418945  0.79248001     0.11100
H1013       H  0.46559566  0.79488711  0.81439792     0.16500
H1014       H  0.04178118  0.82805386  0.83626606     0.12400
H1015       H  0.03916079  0.94892239  0.78522632     0.15300
H1016       H  0.46042560  0.91352537  0.76280848     0.15100
C1017       C  0.09766944  0.45306854  0.69830273    -0.17800
C1018       C  0.12363559  0.45797995  0.68853591    -0.20000
C1019       C  0.13518283  0.48732799  0.68628577     0.20700
C1020       C  0.12021227  0.51198858  0.69392603    -0.02900
C1021       C  0.09393964  0.50699839  0.70386398    -0.06000
C1022       C  0.08277875  0.47737496  0.70610675     0.20900
C1023       C  0.07906241  0.53156099  0.71166746     0.19100
C1024       C  0.09040003  0.56096065  0.70922302    -0.17500
C1025       C  0.11631640  0.56591415  0.69934487    -0.19700
C1026       C  0.13153227  0.54158255  0.69169292     0.20600
C1027       C  0.15769081  0.54632961  0.68178757    -0.32700
C1028       C  0.17275583  0.52186865  0.67397926     0.01300
C1029       C  0.16126752  0.49239461  0.67643865    -0.24000
C1030       C  0.05731943  0.47240608  0.71635405    -0.28600
C1031       C  0.04292746  0.49651800  0.72478740     0.07000
C1032       C  0.05362601  0.52620204  0.72204164    -0.27300
H1033       H  0.11169649  0.93197694  0.71002804     0.11700
H1034       H  0.15597304  0.94117588  0.69223080     0.12800
H1035       H  0.07933582  0.58016094  0.71505224     0.11900
H1036       H  0.12454800  0.58883801  0.69774614     0.11100
H1037       H  0.16606235  0.56916041  0.67998120     0.16500
H1038       H  0.17242630  0.47333213  0.67051668     0.12400
H1039       H  0.06803582  0.95087601  0.72552800     0.15300
H1040       H  0.04296299  0.54500754  0.72843762     0.15100
C1041       C  0.35991402  0.45878497  0.68892642    -0.17800
C1042       C  0.39790860  0.95538154  0.69836579    -0.20000
C1043       C  0.40009430  0.47797747  0.70693242     0.20700
C1044       C  0.38860696  0.50761632  0.70480306    -0.02900
C1045       C  0.36250440  0.51271831  0.69470728    -0.06000
C1046       C  0.34799383  0.48813558  0.68684922     0.20900
C1047       C  0.35087285  0.54234222  0.69254968     0.19100
C1048       C  0.36568034  0.56659037  0.70038489    -0.17500
C1049       C  0.39142292  0.56150967  0.71046329    -0.19700
C1050       C  0.40297227  0.53207556  0.71289386     0.20600
C1051       C  0.42808190  0.52655242  0.72355638    -0.32700
C1052       C  0.43886312  0.49682515  0.72627484     0.01300
C1053       C  0.43806168  0.97427288  0.71650856    -0.24000
C1054       C  0.32198840  0.49329881  0.67694332    -0.28600
C1055       C  0.31022797  0.52278874  0.67458638     0.07000
C1056       C  0.32481414  0.54719638  0.68253104    -0.27300
H1057       H  0.36086409  0.94141527  0.68274984     0.11700
H1058       H  0.40651968  0.93244990  0.69973003     0.12800
H1059       H  0.35722250  0.58952666  0.69880510     0.11900
H1060       H  0.40215111  0.58062149  0.71648072     0.11100
H1061       H  0.43841844  0.54519615  0.73018832     0.16500
H1062       H  0.44677209  0.95136658  0.71778793     0.12400
H1063       H  0.31113756  0.47429154  0.67087117     0.15300
H1064       H  0.31617369  0.57002396  0.68073364     0.15100
C1065       C  0.99037306  0.46122191  0.75837870     0.86500
C1066       C  0.96203877  0.46577474  0.74718655    -0.53700
C1067       C  0.97387527  0.99122017  0.73796200     0.09400
C1068       C  0.00109916  0.01204389  0.74230964     0.20400
C1069       C  0.51863899  0.46152157  0.74636191    -0.54500
C1070       C  0.53280566  0.99200599  0.73963359     0.09500
C1071       C  0.99201152  0.49022254  0.76881305    -0.54000
C1072       C  0.50111095  0.01704850  0.76067492     0.10100
H1073       H  0.94362393  0.44963243  0.74602748     0.14600
H1074       H  0.00176660  0.03317531  0.73488165     0.00300
H1075       H  0.53583111  0.44393232  0.74515571     0.14900
H1076       H  0.99334582  0.48990261  0.78224851     0.14700
O1077       O  0.78289702  0.07244934  0.62771202    -0.71800
O1078       O  0.72151255  0.06008415  0.66083992    -0.72000
O1079       O  0.78400747  0.05973277  0.66039614    -0.71900
O1080       O  0.72133844  0.07273470  0.62802904    -0.71900
O1081       O  0.72251492  0.02481129  0.62213700    -0.71800
O1082       O  0.77247131  0.51099544  0.65460472    -0.71800
O1083       O  0.71084688  0.50990276  0.65546270    -0.71800
O1084       O  0.78333265  0.02413164  0.62291574    -0.72000
V1085       V  0.75239331  0.06536498  0.64422705     1.35200
V1086       V  0.74079002  0.51792633  0.63896901     1.35200
C1087       C  0.79337403  0.05023640  0.61955943     0.77500
C1088       C  0.71017437  0.03402756  0.66320137     0.77500
C1089       C  0.79448523  0.03333646  0.66307632     0.77400
C1090       C  0.71212606  0.05101078  0.61913744     0.77400
O1091       O  0.71851814  0.06975438  0.36848657    -0.71800
O1092       O  0.78495463  0.05373417  0.33912079    -0.72000
O1093       O  0.72330852  0.05446122  0.33619765    -0.71900
O1094       O  0.77967809  0.06899230  0.37123970    -0.71900
O1095       O  0.77821966  0.02139024  0.37797152    -0.71800
O1096       O  0.71402924  0.50617542  0.34208287    -0.71800
O1097       O  0.77569770  0.50717209  0.34544055    -0.71800
O1098       O  0.71751591  0.02205390  0.37502055    -0.72000
V1099       V  0.75157175  0.06081134  0.35382156     1.35200
V1100       V  0.74200226  0.51526088  0.35947757     1.35200
C1101       C  0.70746276  0.04865075  0.37723917     0.77500
C1102       C  0.79607020  0.02729361  0.33777434     0.77500
C1103       C  0.71313591  0.02811521  0.33359450     0.77400
C1104       C  0.78830446  0.04769032  0.38070703     0.77400
N1105       N  0.02754617  0.48253257  0.02616597    -0.36600
N1106       N  0.02478034  0.43719438  0.00019285    -0.57200
N1107       N  0.02649845  0.48596185  0.97516041    -0.36600
N1108       N  0.00325327  0.03375760  0.00042552    -0.57200
C1109       C  0.02504811  0.45726176  0.03573716     0.27000
C1110       C  0.00387732  0.01197333  0.03554386     0.27000
C1111       C  0.02858814  0.46147172  0.96517555     0.27000
C1112       C  0.00858830  0.01119565  0.96531080     0.27000
C1113       C  0.02339805  0.41804672  0.01327685     0.35600
C1114       C  0.02262785  0.42005520  0.98643598     0.35600
C1115       C  0.99908822  0.05197967  0.01363984     0.35600
C1116       C  0.00410926  0.05189120  0.98692785     0.35600
C1117       C  0.02235607  0.46582844  0.05217661    -0.21900
C1118       C  0.01127794  0.00352466  0.05164034    -0.21900
C1119       C  0.03445507  0.47095856  0.94909045    -0.21900
C1120       C  0.00808853  0.00181738  0.94893024    -0.21900
C1121       C  0.02076080  0.38846984  0.00775115    -0.22900
C1122       C  0.02009620  0.38974880  0.99080415    -0.22900
C1123       C  0.99727564  0.08193934  0.00852876    -0.22900
C1124       C  0.00061282  0.08190456  0.99163421    -0.22900
C1125       C  0.02390748  0.42667478  0.03017188    -0.18300
C1126       C  0.99922960  0.04233714  0.03035290    -0.18300
C1127       C  0.00706641  0.04196701  0.97033760    -0.18300
C1128       C  0.02414365  0.43083864  0.96992845    -0.18300
H1129       H  0.01968386  0.45120964  0.06285659     0.14600
H1130       H  0.01457628  0.01813991  0.06222270     0.14600
H1131       H  0.03689354  0.45701155  0.93817260     0.14600
H1132       H  0.00693498  0.01588678  0.93794147     0.14600
H1133       H  0.01936818  0.36800838  0.01511624     0.12900
H1134       H  0.01837435  0.37042862  0.98264516     0.12900
H1135       H  0.99444648  0.10181687  0.01619335     0.12900
H1136       H  0.00033786  0.10174694  0.98372469     0.12900
H1137       H  0.03122589  0.48323724  0.01364216     0.26200
H1138       H  0.01873444  0.48575159  0.98718543     0.26200
O1139       O  0.51955302  0.26333990  0.16074209    -0.71800
O1140       O  0.51882850  0.20004245  0.12878571    -0.72000
O1141       O  0.52130520  0.26059748  0.12751869    -0.71900
O1142       O  0.51759023  0.20236691  0.16226874    -0.71900
O1143       O  0.96673919  0.20671249  0.16061047    -0.71800
O1144       O  0.97655147  0.26342125  0.12524203    -0.71800
O1145       O  0.97214233  0.20315503  0.12756145    -0.71800
O1146       O  0.97068561  0.26763306  0.15833974    -0.72000
V1147       V  0.51834718  0.23155680  0.14485132     1.35200
V1148       V  0.97250413  0.23520551  0.14304098     1.35200
C1149       C  0.99495965  0.27696805  0.16510281     0.77500
C1150       C  0.99706190  0.19105929  0.12319155     0.77500
C1151       C  0.00293111  0.27139704  0.12047378     0.77400
C1152       C  0.98987975  0.19542557  0.16788019     0.77400
C1153       C  0.49258866  0.45664492  0.24109349     0.86500
C1154       C  0.52084739  0.46130508  0.25220720    -0.53700
C1155       C  0.53345289  0.98606798  0.26046071     0.09400
C1156       C  0.50377495  0.00509894  0.25972212     0.20400
C1157       C  0.96530033  0.45816935  0.25464928    -0.54500
C1158       C  0.97541271  0.98488396  0.26386849     0.09500
C1159       C  0.49041179  0.48541808  0.23047168    -0.54000
C1160       C  0.49819537  0.01135799  0.24118057     0.10100
H1161       H  0.53933594  0.44500543  0.25337007     0.14600
H1162       H  0.50441243  0.02586383  0.26741247     0.00300
H1163       H  0.94793646  0.44092981  0.25636649     0.14900
H1164       H  0.48968602  0.48509403  0.21702081     0.14700
O1165       O  0.97665473  0.26887834  0.84097405    -0.71800
O1166       O  0.97801852  0.20925651  0.87514628    -0.72000
O1167       O  0.97954766  0.26959850  0.87448293    -0.71900
O1168       O  0.97528220  0.20770337  0.84191552    -0.71900
O1169       O  0.51886415  0.20664701  0.84064678    -0.71800
O1170       O  0.52120669  0.26504001  0.87479760    -0.71800
O1171       O  0.52061731  0.20481513  0.87392617    -0.71800
O1172       O  0.51920830  0.26757847  0.84159928    -0.72000
V1173       V  0.97832215  0.23889961  0.85803240     1.35200
V1174       V  0.51895280  0.23602131  0.85770935     1.35200
C1175       C  0.49416211  0.27837260  0.83624920     0.77500
C1176       C  0.49613318  0.19545616  0.88046439     0.77500
C1177       C  0.49704010  0.27573996  0.88107984     0.77400
C1178       C  0.49383257  0.19591017  0.83551144     0.77400
N1179       N  0.49846463  0.08232824  0.47367015    -0.36600
N1180       N  0.95559690  0.07572602  0.49928899    -0.57200
N1181       N  0.50285534  0.07893733  0.52484089    -0.36600
N1182       N  0.54790165  0.07949735  0.49803229    -0.57200
C1183       C  0.97499620  0.07621497  0.46382046     0.27000
C1184       C  0.52278017  0.07781759  0.46352159     0.27000
C1185       C  0.98031238  0.06612483  0.53358348     0.27000
C1186       C  0.52881072  0.07286056  0.53345968     0.27000
C1187       C  0.93640663  0.08107870  0.48644313     0.35600
C1188       C  0.93839263  0.07684764  0.51317248     0.35600
C1189       C  0.56483765  0.08418545  0.48426883     0.35600
C1190       C  0.56714772  0.08229005  0.51107906     0.35600
C1191       C  0.98280752  0.06814188  0.44778693    -0.21900
C1192       C  0.51232963  0.06993108  0.44790713    -0.21900
C1193       C  0.99056466  0.05631791  0.54897232    -0.21900
C1194       C  0.52124703  0.06271940  0.54920675    -0.21900
C1195       C  0.90686600  0.08556064  0.49217716    -0.22900
C1196       C  0.90811616  0.08287017  0.50910181    -0.22900
C1197       C  0.59497370  0.08993171  0.48860815    -0.22900
C1198       C  0.59642432  0.08877907  0.50557805    -0.22900
C1199       C  0.94449895  0.07903406  0.46955106    -0.18300
C1200       C  0.55416710  0.08100112  0.46779911    -0.18300
C1201       C  0.55921014  0.07714526  0.52782894    -0.18300
C1202       C  0.94910236  0.07062340  0.52939069    -0.18300
H1203       H  0.96750754  0.06284346  0.43765104     0.14600
H1204       H  0.52591292  0.06504006  0.43704135     0.14600
H1205       H  0.97685264  0.05020630  0.55960379     0.14600
H1206       H  0.53671934  0.05611463  0.55908161     0.14600
H1207       H  0.88643361  0.08972096  0.48489292     0.12900
H1208       H  0.88882353  0.08462307  0.51743020     0.12900
H1209       H  0.61402549  0.09414778  0.48038822     0.12900
H1210       H  0.61680660  0.09195934  0.51300322     0.12900
H1211       H  0.49925915  0.09111661  0.48554774     0.26200
H1212       H  0.50160626  0.08966197  0.51341463     0.26200
C1213       C  0.94436008  0.39383367  0.19754560    -0.17800
C1214       C  0.94511646  0.36947099  0.18650061    -0.20000
C1215       C  0.96863045  0.34774529  0.18745103     0.20700
C1216       C  0.99143086  0.35041117  0.19974691    -0.02900
C1217       C  0.99050572  0.37486596  0.21096223    -0.06000
C1218       C  0.96704238  0.39682016  0.20977003     0.20900
C1219       C  0.52141550  0.38922202  0.21494900     0.19100
C1220       C  0.54921288  0.37547811  0.21043375    -0.17500
C1221       C  0.54952792  0.35031498  0.19995555    -0.19700
C1222       C  0.52205603  0.33845649  0.19379099     0.20600
C1223       C  0.52216473  0.31309109  0.18334633    -0.32700
C1224       C  0.99387132  0.30220759  0.17704337     0.01300
C1225       C  0.96983269  0.32349018  0.17629203    -0.24000
C1226       C  0.96709737  0.42172448  0.22055164    -0.28600
C1227       C  0.49309361  0.42813348  0.23032024     0.07000
C1228       C  0.52097352  0.41439153  0.22549890    -0.27300
H1229       H  0.92615785  0.41047664  0.19644002     0.11700
H1230       H  0.92742564  0.36774776  0.17712843     0.12800
H1231       H  0.57074808  0.38413254  0.21506245     0.11900
H1232       H  0.57127813  0.34008719  0.19670070     0.11100
H1233       H  0.54375010  0.30259920  0.17999771     0.16500
H1234       H  0.95231718  0.32143794  0.16683259     0.12400
H1235       H  0.94935066  0.43885819  0.21939730     0.15300
H1236       H  0.54265048  0.42357703  0.22944487     0.15100
C1237       C  0.54306847  0.13319304  0.21229972    -0.17800
C1238       C  0.54349533  0.10829176  0.22312419    -0.20000
C1239       C  0.51810693  0.08902537  0.22426411     0.20700
C1240       C  0.98452998  0.09889641  0.21494549    -0.02900
C1241       C  0.98427730  0.12455268  0.20441095    -0.06000
C1242       C  0.51711534  0.13951851  0.20254447     0.20900
C1243       C  0.96001457  0.12897547  0.19305581     0.19100
C1244       C  0.93567642  0.10832912  0.19280394    -0.17500
C1245       C  0.93614532  0.08269178  0.20307001    -0.19700
C1246       C  0.96085905  0.07735566  0.21385164     0.20600
C1247       C  0.96317895  0.05017344  0.22288217    -0.32700
C1248       C  0.49468928  0.04202246  0.23382532     0.01300
C1249       C  0.51933540  0.06235893  0.23387864    -0.24000
C1250       C  0.51718070  0.16323784  0.19083702    -0.28600
C1251       C  0.98666427  0.17252534  0.18126020     0.07000
C1252       C  0.96115714  0.15320053  0.18170726    -0.27300
H1253       H  0.56328887  0.14718102  0.21132495     0.11700
H1254       H  0.56404180  0.10358917  0.23024152     0.12800
H1255       H  0.91673410  0.11148429  0.18427716     0.11900
H1256       H  0.91759235  0.06657841  0.20222481     0.11100
H1257       H  0.94577644  0.03293722  0.22150645     0.16500
H1258       H  0.54012885  0.05644052  0.24050590     0.12400
H1259       H  0.53761553  0.17676174  0.18928328     0.15300
H1260       H  0.94297460  0.15605976  0.17266858     0.15100
C1261       C  0.55563360  0.10888089  0.93192358    -0.17800
C1262       C  0.55460847  0.13019640  0.91909185    -0.20000
C1263       C  0.52641375  0.14094973  0.91306354     0.20700
C1264       C  0.49894670  0.13019175  0.92003515    -0.02900
C1265       C  0.49996379  0.10854058  0.93290663    -0.06000
C1266       C  0.52847845  0.09790368  0.93888805     0.20900
C1267       C  0.97788294  0.09651094  0.93754995     0.19100
C1268       C  0.95005976  0.10542962  0.93028132    -0.17500
C1269       C  0.94940359  0.12788600  0.91802513    -0.19700
C1270       C  0.97659702  0.14160621  0.91272297     0.20600
C1271       C  0.97618913  0.16359804  0.90013782    -0.32700
C1272       C  0.49697641  0.17287677  0.89405309     0.01300
C1273       C  0.52523827  0.16215397  0.90012653    -0.24000
C1274       C  0.52929220  0.07630392  0.95162781    -0.28600
C1275       C  0.00660782  0.06546035  0.95716225     0.07000
C1276       C  0.97871086  0.07408365  0.94987416    -0.27300
H1277       H  0.57767271  0.10087979  0.93635300     0.11700
H1278       H  0.57589001  0.13824464  0.91385762     0.12800
H1279       H  0.92878195  0.09503837  0.93408419     0.11900
H1280       H  0.92762532  0.13435573  0.91259193     0.11100
H1281       H  0.95455691  0.17016808  0.89455335     0.16500
H1282       H  0.54639966  0.17031493  0.89478774     0.12400
H1283       H  0.55104441  0.06787550  0.95626753     0.15300
H1284       H  0.95773046  0.06333032  0.95388713     0.15100
C1285       C  0.56040402  0.33307986  0.92044896    -0.17800
C1286       C  0.56357347  0.35488699  0.93283871    -0.20000
C1287       C  0.53773560  0.36971296  0.93922710     0.20700
C1288       C  0.50833696  0.36216177  0.93321284    -0.02900
C1289       C  0.50514665  0.34013400  0.92069591    -0.06000
C1290       C  0.53135782  0.32578214  0.91421731     0.20900
C1291       C  0.98386321  0.33104629  0.91503232     0.19100
C1292       C  0.95770721  0.34255288  0.92291098    -0.17500
C1293       C  0.96045009  0.36438625  0.93532635    -0.19700
C1294       C  0.98938788  0.37497360  0.94006959     0.20600
C1295       C  0.99233054  0.39764097  0.95203853    -0.32700
C1296       C  0.02139103  0.40802404  0.95667182     0.01300
C1297       C  0.54073253  0.39196315  0.95149607    -0.24000
C1298       C  0.52819491  0.30467002  0.90145474    -0.28600
C1299       C  0.49920071  0.29763926  0.89490992     0.07000
C1300       C  0.98129099  0.31047714  0.90191084    -0.27300
H1301       H  0.58073063  0.32210435  0.91562493     0.11700
H1302       H  0.58626330  0.36029194  0.93735249     0.12800
H1303       H  0.93510272  0.33505151  0.91927421     0.11900
H1304       H  0.93991755  0.37328941  0.94106487     0.11100
H1305       H  0.97213984  0.40716597  0.95785914     0.16500
H1306       H  0.56316606  0.39783557  0.95623150     0.12400
H1307       H  0.54852918  0.29388567  0.89650117     0.15300
H1308       H  0.95883393  0.30321128  0.89785787     0.15100
C1309       C  0.96271763  0.34969014  0.06007860    -0.17800
C1310       C  0.95985614  0.32794601  0.07263568    -0.20000
C1311       C  0.98492968  0.32047133  0.08278597     0.20700
C1312       C  0.01344613  0.33437965  0.07991172    -0.02900
C1313       C  0.01634557  0.35637560  0.06722126    -0.06000
C1314       C  0.99071319  0.36436736  0.05742767     0.20900
C1315       C  0.53496621  0.36587134  0.06182786     0.19100
C1316       C  0.56086843  0.34957728  0.06713627    -0.17500
C1317       C  0.55850743  0.32785128  0.07973335    -0.19700
C1318       C  0.53019336  0.32199255  0.08725350     0.20600
C1319       C  0.52773198  0.30044621  0.10001892    -0.32700
C1320       C  0.00682258  0.29261362  0.10627587     0.01300
C1321       C  0.98180335  0.29977605  0.09593329    -0.24000
C1322       C  0.99340902  0.38720303  0.04535079    -0.28600
C1323       C  0.02142682  0.40208456  0.04287897     0.07000
C1324       C  0.53718723  0.38791763  0.04929399    -0.27300
H1325       H  0.94288140  0.35534419  0.05258511     0.11700
H1326       H  0.93786488  0.31729070  0.07456988     0.12800
H1327       H  0.58300733  0.35370931  0.06157849     0.11900
H1328       H  0.57888682  0.31567000  0.08363189     0.11100
H1329       H  0.54800796  0.28821408  0.10404883     0.16500
H1330       H  0.95976556  0.28940319  0.09818908     0.12400
H1331       H  0.97371025  0.39366154  0.03792455     0.15300
H1332       H  0.55909690  0.39254924  0.04357150     0.15100
C1333       C  0.94240779  0.10067888  0.07264033    -0.17800
C1334       C  0.94230207  0.12099371  0.08591773    -0.20000
C1335       C  0.96970170  0.13407297  0.09145149     0.20700
C1336       C  0.99747382  0.12662059  0.08354702    -0.02900
C1337       C  0.99754175  0.10643397  0.07004413    -0.06000
C1338       C  0.96988375  0.09330337  0.06459438     0.20900
C1339       C  0.51962529  0.09518087  0.06276871     0.19100
C1340       C  0.54744686  0.10668695  0.06863768    -0.17500
C1341       C  0.54785264  0.12758486  0.08158781    -0.19700
C1342       C  0.52043548  0.13733478  0.08887916     0.20600
C1343       C  0.52076527  0.15818088  0.10193794    -0.32700
C1344       C  0.99738611  0.16771823  0.11012048     0.01300
C1345       C  0.96982077  0.15468662  0.10463458    -0.24000
C1346       C  0.97035685  0.07285164  0.05131142    -0.28600
C1347       C  0.99807587  0.06576820  0.04341983     0.07000
C1348       C  0.51916074  0.07401466  0.04991999    -0.27300
H1349       H  0.92099148  0.09079742  0.06863800     0.11700
H1350       H  0.92078284  0.12646677  0.09186747     0.12800
H1351       H  0.56893410  0.09944052  0.06323889     0.11900
H1352       H  0.56965093  0.13609048  0.08592685     0.11100
H1353       H  0.54244676  0.16687472  0.10635767     0.16500
H1354       H  0.94840919  0.16076124  0.11054055     0.12400
H1355       H  0.94939576  0.06213864  0.04722133     0.15300
H1356       H  0.54043410  0.06631932  0.04442859     0.15100
C1357       C  0.86872560  0.01483707  0.44149090    -0.17800
C1358       C  0.84698710  0.01033314  0.42902294    -0.20000
C1359       C  0.83879576  0.03409810  0.41828915     0.20700
C1360       C  0.85241699  0.06278938  0.42022051    -0.02900
C1361       C  0.87449005  0.06730615  0.43275711    -0.06000
C1362       C  0.88267352  0.04315378  0.44340662     0.20900
C1363       C  0.88866866  0.09581634  0.43448044     0.19100
C1364       C  0.88025310  0.11962887  0.42381602    -0.17500
C1365       C  0.85818381  0.11520557  0.41146947    -0.19700
C1366       C  0.84430633  0.08683637  0.40949394     0.20600
C1367       C  0.82287121  0.08195026  0.39681482    -0.32700
C1368       C  0.80973856  0.05321608  0.39457877     0.01300
C1369       C  0.81757428  0.02951793  0.40550848    -0.24000
C1370       C  0.90497058  0.04760504  0.45563370    -0.28600
C1371       C  0.91943746  0.07573009  0.45724342     0.07000
C1372       C  0.91123684  0.09981806  0.44670129    -0.27300
H1373       H  0.87481644  0.99608541  0.44955970     0.11700
H1374       H  0.83672512  0.98818048  0.42770369     0.12800
H1375       H  0.89085492  0.14165117  0.42497064     0.11900
H1376       H  0.85220223  0.13390891  0.40334384     0.11100
H1377       H  0.81685830  0.10038167  0.38850278     0.16500
H1378       H  0.80740351  0.00735566  0.40397394     0.12400
H1379       H  0.91162430  0.02905943  0.46373571     0.14100
H1380       H  0.92264583  0.12143786  0.44795437     0.15100
C1381       C  0.63217791  0.11536065  0.40598633    -0.17800
C1382       C  0.61078614  0.11986066  0.41869448    -0.20000
C1383       C  0.60507749  0.09693603  0.43038728     0.20700
C1384       C  0.62161604  0.06944274  0.42942891    -0.02900
C1385       C  0.64302943  0.06484795  0.41656242    -0.06000
C1386       C  0.64819857  0.08779432  0.40467664     0.20900
C1387       C  0.65902721  0.03711016  0.41552515     0.19100
C1388       C  0.65425686  0.01460072  0.42752640    -0.17500
C1389       C  0.63319502  0.01917119  0.44026738    -0.19700
C1390       C  0.61651175  0.04631618  0.44121269     0.20600
C1391       C  0.59460871  0.05055471  0.45364864    -0.32700
C1392       C  0.57758537  0.07754070  0.45450431     0.01300
C1393       C  0.58301346  0.10079531  0.44292446    -0.24000
C1394       C  0.66913657  0.08261624  0.39170136    -0.28600
C1395       C  0.68459638  0.05461152  0.39042110     0.07000
C1396       C  0.67943758  0.03216563  0.40247826    -0.27300
H1397       H  0.63595339  0.13334870  0.39707472     0.11700
H1398       H  0.59852050  0.14121151  0.41929803     0.12800
H1399       H  0.66662875  0.99329976  0.42697082     0.11900
H1400       H  0.62970594  0.00131070  0.44929081     0.11100
H1401       H  0.59048833  0.03274789  0.46264170     0.16500
H1402       H  0.57001829  0.12171356  0.44369428     0.12400
H1403       H  0.67322789  0.10020590  0.38258761     0.15300
H1404       H  0.69163616  0.01076103  0.40183818     0.15100
C1405       C  0.87467105  0.06198093  0.29794604    -0.17800
C1406       C  0.90017153  0.05618459  0.28796764    -0.20000
C1407       C  0.91329800  0.02712081  0.28743904     0.20700
C1408       C  0.90069456  0.00368942  0.29715263    -0.02900
C1409       C  0.87493791  0.00955631  0.30725006    -0.06000
C1410       C  0.86181231  0.03882688  0.30759056     0.20900
C1411       C  0.86221370  0.98609899  0.31689159     0.19100
C1412       C  0.87599923  0.46445480  0.32176193    -0.17500
C1413       C  0.90132560  0.45852291  0.31165866    -0.19700
C1414       C  0.90930271  0.47873112  0.29893304     0.20600
C1415       C  0.93364273  0.47227537  0.28813830    -0.32700
C1416       C  0.95092556  0.99161336  0.27617943     0.01300
C1417       C  0.93839861  0.02097780  0.27711939    -0.24000
C1418       C  0.83603179  0.04443325  0.31751217    -0.28600
C1419       C  0.82306438  0.02115292  0.32711184     0.07000
C1420       C  0.83640866  0.99203278  0.32673862    -0.27300
H1421       H  0.86491638  0.08458696  0.29806337     0.11700
H1422       H  0.90952242  0.07442720  0.28056942     0.12800
H1423       H  0.87014004  0.44836273  0.33139293     0.11900
H1424       H  0.91444469  0.43793995  0.31366559     0.11100
H1425       H  0.94645642  0.45131597  0.28950201     0.16500
H1426       H  0.94737286  0.03884653  0.26931554     0.12400
H1427       H  0.82605208  0.06695173  0.31773841     0.15300
H1428       H  0.82574445  0.48018576  0.33849485     0.15100
C1429       C  0.59954188  0.45300294  0.30061609    -0.17800
C1430       C  0.65021438  0.95668871  0.30152480    -0.20000
C1431       C  0.65823129  0.98656028  0.30540380     0.20700
C1432       C  0.64063503  0.01084409  0.29900152    -0.02900
C1433       C  0.61446986  0.00494974  0.28925201    -0.06000
C1434       C  0.60602335  0.97482131  0.28598636     0.20900
C1435       C  0.59632630  0.02914043  0.28317672     0.19100
C1436       C  0.60502022  0.05903569  0.28659406    -0.17500
C1437       C  0.63089384  0.06489358  0.29632382    -0.19700
C1438       C  0.64860013  0.04096381  0.30277281     0.20600
C1439       C  0.67340971  0.04656343  0.31341319    -0.32700
C1440       C  0.69000505  0.02239769  0.32054564     0.01300
C1441       C  0.68280454  0.99249992  0.31608385    -0.24000
C1442       C  0.57924011  0.96907005  0.27704964    -0.28600
C1443       C  0.56096399  0.99296329  0.27077400     0.07000
C1444       C  0.56973026  0.02300024  0.27393004    -0.27300
H1445       H  0.59038010  0.43027188  0.30003945     0.11700
H1446       H  0.63653735  0.43933982  0.31647577     0.12800
H1447       H  0.59152851  0.07790513  0.28195569     0.11900
H1448       H  0.63675289  0.08816618  0.29904500     0.11100
H1449       H  0.67889310  0.06967884  0.31672964     0.16500
H1450       H  0.69571122  0.97375823  0.32135410     0.12400
H1451       H  0.55025154  0.44877990  0.28160390     0.15300
H1452       H  0.55611178  0.04158839  0.26909130     0.15100
C1453       C  0.64382052  0.01969032  0.55413779    -0.17800
C1454       C  0.66473577  0.01581674  0.56713113    -0.20000
C1455       C  0.66735173  0.03781262  0.57956324     0.20700
C1456       C  0.64901147  0.06415595  0.57880887    -0.02900
C1457       C  0.62779529  0.06800396  0.56573917    -0.06000
C1458       C  0.62512463  0.04559263  0.55337923     0.20900
C1459       C  0.60893616  0.09404057  0.56519432     0.19100
C1460       C  0.61172980  0.11611381  0.57755902    -0.17500
C1461       C  0.63295203  0.11242524  0.59042223    -0.19700
C1462       C  0.65159912  0.08649186  0.59121175     0.20600
C1463       C  0.67251025  0.08234013  0.60427766    -0.32700
C1464       C  0.69038652  0.05584218  0.60528409     0.01300
C1465       C  0.68777423  0.03378274  0.59281473    -0.24000
C1466       C  0.60339561  0.04923117  0.54068538    -0.28600
C1467       C  0.58420715  0.07484126  0.54030346     0.07000
C1468       C  0.58725715  0.09727943  0.55246534    -0.27300
H1469       H  0.64206361  0.00228163  0.54476288     0.11700
H1470       H  0.67873500  0.99549930  0.56751711     0.12800
H1471       H  0.59737966  0.13619337  0.57732549     0.11900
H1472       H  0.63458676  0.12975394  0.59984601     0.11100
H1473       H  0.67448042  0.09945600  0.61380891     0.16500
H1474       H  0.70178642  0.01346791  0.59337385     0.12400
H1475       H  0.60077429  0.03186224  0.53133462     0.15300
H1476       H  0.57226063  0.11691254  0.55214776     0.15100
C1477       C  0.87643314  0.00898776  0.56176687    -0.17800
C1478       C  0.85465959  0.00634444  0.57433661    -0.20000
C1479       C  0.84646660  0.03158247  0.58390089     0.20700
C1480       C  0.86029420  0.05980523  0.58080627    -0.02900
C1481       C  0.88236860  0.06247132  0.56812912    -0.06000
C1482       C  0.89039025  0.03692144  0.55854681     0.20900
C1483       C  0.89640142  0.09065425  0.56505455     0.19100
C1484       C  0.88820802  0.11585509  0.57465705    -0.17500
C1485       C  0.86622217  0.11322735  0.58717767    -0.19700
C1486       C  0.85211357  0.08530574  0.59037997     0.20600
C1487       C  0.83011912  0.08234328  0.60300807    -0.32700
C1488       C  0.81645316  0.05410667  0.60624579     0.01300
C1489       C  0.82475902  0.02895531  0.59654307    -0.24000
C1490       C  0.91217535  0.03978368  0.54590897    -0.28600
C1491       C  0.92609580  0.06779550  0.54280653     0.07000
C1492       C  0.91829307  0.09310318  0.55241845    -0.27300
H1493       H  0.88235796  0.98916370  0.55455865     0.11700
H1494       H  0.84076029  0.48889992  0.57728363     0.12800
H1495       H  0.89877857  0.13764330  0.57246384     0.11900
H1496       H  0.86030448  0.13304594  0.59438897     0.11100
H1497       H  0.82383086  0.10188889  0.61036134     0.16500
H1498       H  0.81427155  0.00713910  0.59880774     0.12400
H1499       H  0.91840509  0.02031511  0.53847010     0.15300
H1500       H  0.92921056  0.11464336  0.54996083     0.15100
C1501       C  0.94253007  0.11592517  0.80647738    -0.17800
C1502       C  0.94210327  0.09128202  0.79560544    -0.20000
C1503       C  0.96886143  0.08222424  0.78734840     0.20700
C1504       C  0.49596326  0.09917046  0.78853090    -0.02900
C1505       C  0.49502339  0.12410376  0.79947001    -0.06000
C1506       C  0.96979710  0.13172828  0.80942513     0.20900
C1507       C  0.52228937  0.13925167  0.80365718     0.19100
C1508       C  0.55003069  0.13008733  0.79645781    -0.17500
C1509       C  0.55091863  0.10563649  0.78549310    -0.19700
C1510       C  0.52413098  0.08974066  0.78164224     0.20600
C1511       C  0.52521256  0.06390345  0.77155908    -0.32700
C1512       C  0.49867744  0.04702444  0.76863730     0.01300
C1513       C  0.96908328  0.05663692  0.77705442    -0.24000
C1514       C  0.97065831  0.15595753  0.82065304    -0.28600
C1515       C  0.49375999  0.17191493  0.82263113     0.07000
C1516       C  0.52149114  0.16289400  0.81521758    -0.27300
H1517       H  0.92160596  0.12237731  0.81274744     0.11700
H1518       H  0.92088899  0.07913579  0.79376279     0.12800
H1519       H  0.57115112  0.14159624  0.79948001     0.11900
H1520       H  0.57269557  0.09874705  0.78029788     0.11100
H1521       H  0.54690852  0.05599327  0.76666855     0.16500
H1522       H  0.94855568  0.04316937  0.77566838     0.12400
H1523       H  0.94995853  0.16265161  0.82707616     0.15300
H1524       H  0.54264162  0.17404718  0.81859216     0.15100
C1525       C  0.54826393  0.38064870  0.79225138    -0.17800
C1526       C  0.54861182  0.35572332  0.80302970    -0.20000
C1527       C  0.52117922  0.34188966  0.80787286     0.20700
C1528       C  0.49312957  0.35314610  0.80165811    -0.02900
C1529       C  0.49281165  0.37826069  0.79069173    -0.06000
C1530       C  0.52048189  0.39220340  0.78606447     0.20900
C1531       C  0.96751721  0.38751131  0.78197456     0.19100
C1532       C  0.94158857  0.36956073  0.78488830    -0.17500
C1533       C  0.94330287  0.34421565  0.79535476    -0.19700
C1534       C  0.97102752  0.33612977  0.80304890     0.20600
C1535       C  0.97264672  0.31139542  0.81407812    -0.32700
C1536       C  0.49375411  0.30366950  0.82401453     0.01300
C1537       C  0.52131888  0.31724633  0.81894755    -0.24000
C1538       C  0.51992566  0.41774846  0.77558486    -0.28600
C1539       C  0.49211260  0.42939712  0.76918844     0.07000
C1540       C  0.96569453  0.41356157  0.77185768    -0.27300
H1541       H  0.56976916  0.39100718  0.78882113     0.11700
H1542       H  0.57037276  0.34739518  0.80767744     0.12800
H1543       H  0.91982764  0.37532348  0.77920812     0.11900
H1544       H  0.92282653  0.33107049  0.79754384     0.11100
H1545       H  0.95214741  0.29852804  0.81669443     0.16500
H1546       H  0.54294213  0.30887465  0.82377507     0.12400
H1547       H  0.54126812  0.42888033  0.77264367     0.15300
H1548       H  0.94366868  0.41949614  0.76670494     0.15100
C1549       C  0.61603019  0.95735935  0.70246261    -0.17800
C1550       C  0.64097167  0.96314712  0.69212311    -0.20000
C1551       C  0.65039781  0.99297047  0.68905075     0.20700
C1552       C  0.63451170  0.01724163  0.69649391    -0.02900
C1553       C  0.60917145  0.01136598  0.70696295    -0.06000
C1554       C  0.60001109  0.98127017  0.70995579     0.20900
C1555       C  0.59299280  0.03551438  0.71437247     0.19100
C1556       C  0.60241340  0.06537892  0.71118020    -0.17500
C1557       C  0.62754329  0.07120168  0.70083223    -0.19700
C1558       C  0.64382174  0.04730389  0.69341046     0.20600
C1559       C  0.66895999  0.05286159  0.68284673    -0.32700
C1560       C  0.68472551  0.02868512  0.67519911     0.01300
C1561       C  0.67523439  0.99882776  0.67852392    -0.24000
C1562       C  0.57503673  0.97545032  0.72038505    -0.28600
C1563       C  0.55884686  0.99918996  0.72812307     0.07000
C1564       C  0.56788905  0.02930981  0.72487517    -0.27300
H1565       H  0.60011317  0.43052618  0.70531739     0.11700
H1566       H  0.64577129  0.44119997  0.68885234     0.12800
H1567       H  0.59034288  0.08428849  0.71670465     0.11900
H1568       H  0.63420667  0.09445988  0.69860589     0.11100
H1569       H  0.67588081  0.07596548  0.68036137     0.16500
H1570       H  0.68706760  0.97996885  0.67278385     0.12400
H1571       H  0.55583276  0.44814696  0.72057935     0.15300
H1572       H  0.55588110  0.04787941  0.73076447     0.15100
C1573       C  0.86667886  0.96211506  0.69003515    -0.17800
C1574       C  0.88679423  0.45834181  0.69642147    -0.20000
C1575       C  0.90852565  0.98026436  0.70720257     0.20700
C1576       C  0.89893621  0.01035722  0.70434296    -0.02900
C1577       C  0.87297262  0.01622938  0.69429665    -0.06000
C1578       C  0.85671392  0.99195198  0.68721503     0.20900
C1579       C  0.86322283  0.04631726  0.69141378     0.19100
C1580       C  0.87979344  0.07023554  0.69846587    -0.17500
C1581       C  0.90541371  0.06439931  0.70850407    -0.19700
C1582       C  0.91508022  0.03452755  0.71164028     0.20600
C1583       C  0.94013320  0.02836333  0.72219930    -0.32700
C1584       C  0.94935510  0.99829471  0.72548586     0.01300
C1585       C  0.92477241  0.47618328  0.71618998    -0.24000
C1586       C  0.83083889  0.99785914  0.67738852    -0.28600
C1587       C  0.82081733  0.02775862  0.67441633     0.07000
C1588       C  0.83718434  0.05191077  0.68150954    -0.27300
H1589       H  0.85164941  0.44527517  0.67935278     0.11700
H1590       H  0.89662214  0.43576896  0.69678408     0.12800
H1591       H  0.87280481  0.09349713  0.69631575     0.11900
H1592       H  0.91755749  0.08328586  0.71391459     0.11100
H1593       H  0.95164306  0.04693728  0.72828435     0.16500
H1594       H  0.93466308  0.45363013  0.71668461     0.12400
H1595       H  0.81862513  0.97904783  0.67192258     0.15300
H1596       H  0.82990681  0.07503644  0.67916778     0.15100
C1597       C  0.99922465  0.96241040  0.76025270     0.86500
C1598       C  0.97308537  0.96546373  0.74745251    -0.53700
C1599       C  0.96208624  0.49198152  0.73806489     0.09400
C1600       C  0.99070753  0.51163102  0.74095080     0.20400
C1601       C  0.53197989  0.96592078  0.74896365    -0.54500
C1602       C  0.51916976  0.48814896  0.73742157     0.09500
C1603       C  0.99681885  0.99164283  0.77032947    -0.54000
C1604       C  0.49451446  0.51363597  0.76086728     0.10100
H1605       H  0.95427516  0.94986813  0.74641295     0.14600
H1606       H  0.99072082  0.53294773  0.73362879     0.00300
H1607       H  0.55046776  0.94941801  0.74909881     0.14900
H1608       H  0.99465545  0.99190527  0.78373264     0.14700
O1609       O  0.77034939  0.57198748  0.62804819    -0.71800
O1610       O  0.70911547  0.55796683  0.66089707    -0.72000
O1611       O  0.77141871  0.55877941  0.66074347    -0.71900
O1612       O  0.70845421  0.57092487  0.62837601    -0.71900
O1613       O  0.70917423  0.52279106  0.62306147    -0.71800
O1614       O  0.78251270  0.01153955  0.65533650    -0.71800
O1615       O  0.72080395  0.01228005  0.65477210    -0.71800
O1616       O  0.77067299  0.52410263  0.62214516    -0.72000
V1617       V  0.73989774  0.56401736  0.64444790     1.35200
V1618       V  0.75223808  0.01917671  0.63897842     1.35200
C1619       C  0.78084336  0.55044356  0.61937801     0.77500
C1620       C  0.69900852  0.53154114  0.66350664     0.77500
C1621       C  0.78306730  0.53271940  0.66296961     0.77400
C1622       C  0.69799393  0.54875807  0.62024043     0.77400
O1623       O  0.70949586  0.56914974  0.36802842    -0.71800
O1624       O  0.77438630  0.55417178  0.33749142    -0.72000
O1625       O  0.71235132  0.55402880  0.33592125    -0.71900
O1626       O  0.77110904  0.56996179  0.36958368    -0.71900
O1627       O  0.76955723  0.52284165  0.37725262    -0.71800
O1628       O  0.72249155  0.00679050  0.34283157    -0.71800
O1629       O  0.78376073  0.00619753  0.34598142    -0.71800
O1630       O  0.70866931  0.52117840  0.37396269    -0.72000
V1631       V  0.74187178  0.56092565  0.35282896     1.35200
V1632       V  0.75044481  0.01504934  0.36026164     1.35200
C1633       C  0.69803795  0.54747110  0.37621469     0.77500
C1634       C  0.78681140  0.52820021  0.33673326     0.77500
C1635       C  0.70254104  0.52751011  0.33352170     0.77400
C1636       C  0.77996358  0.54926648  0.37937676     0.77400
N1637       N  0.00159913  0.98692337  0.02600190    -0.36600
N1638       N  0.00850111  0.93970118  0.00101057    -0.57200
N1639       N  0.00992863  0.98655269  0.97533455    -0.36600
N1640       N  0.02942519  0.53155097  0.00102208    -0.57200
C1641       C  0.00804370  0.96274900  0.03582417     0.27000
C1642       C  0.02553474  0.50695127  0.03626084     0.27000
C1643       C  0.00938418  0.96166241  0.96556153     0.27000
C1644       C  0.03137574  0.51086698  0.96565597     0.27000
C1645       C  0.00551273  0.92183858  0.01452928     0.35600
C1646       C  0.00699555  0.92139564  0.98765151     0.35600
C1647       C  0.02594688  0.54878020  0.01472384     0.35600
C1648       C  0.02753067  0.55039463  0.98776122     0.35600
C1649       C  0.01398724  0.97256679  0.05179970    -0.21900
C1650       C  0.02270566  0.49697691  0.05251403    -0.21900
C1651       C  0.00855858  0.97071185  0.94908692    -0.21900
C1652       C  0.03630803  0.50201321  0.94940471    -0.21900
C1653       C  0.00223734  0.89191556  0.00975890    -0.22900
C1654       C  0.00316174  0.89162999  0.99275244    -0.22900
C1655       C  0.02230370  0.57889854  0.01009055    -0.22900
C1656       C  0.02331789  0.57989761  0.99307659    -0.22900
C1657       C  0.00704179  0.93189749  0.03113019    -0.18300
C1658       C  0.02506208  0.53803647  0.03136798    -0.18300
C1659       C  0.02950472  0.54148340  0.97090741    -0.18300
C1660       C  0.00865555  0.93094363  0.97088727    -0.18300
H1661       H  0.01954928  0.95884517  0.06253389     0.14600
H1662       H  0.02048990  0.51069530  0.06353126     0.14600
H1663       H  0.00783377  0.95641654  0.93823363     0.14600
H1664       H  0.04035859  0.51644232  0.93877740     0.14600
H1665       H  0.99950754  0.87231412  0.01769346     0.12900
H1666       H  0.00101738  0.87176399  0.98503013     0.12900
H1667       H  0.01871738  0.59816914  0.01811501     0.12900
H1668       H  0.02084957  0.60002109  0.98548967     0.12900
H1669       H  0.99298058  0.98618792  0.01402853     0.26200
H1670       H  0.01215474  0.98677630  0.98805355     0.26200
O1671       O  0.52190959  0.76451002  0.16096794    -0.71800
O1672       O  0.52647364  0.70352644  0.12809365    -0.72000
O1673       O  0.52635355  0.76435734  0.12786178    -0.71900
O1674       O  0.52209989  0.70375761  0.16146734    -0.71900
O1675       O  0.97123198  0.70386757  0.15939699    -0.71800
O1676       O  0.97593476  0.76329069  0.12514062    -0.71800
O1677       O  0.97692965  0.70233379  0.12611798    -0.71800
O1678       O  0.97036503  0.76555170  0.15826859    -0.72000
V1679       V  0.52323788  0.73399054  0.14457343     1.35200
V1680       V  0.97454036  0.73373571  0.14231840     1.35200
C1681       C  0.99419426  0.77629933  0.16497326     0.77500
C1682       C  0.00290187  0.69282103  0.12140206     0.77500
C1683       C  0.00136238  0.77421592  0.12068194     0.77400
C1684       C  0.99527235  0.69303238  0.16598299     0.77400
C1685       C  0.50191009  0.95613589  0.24144661     0.86500
C1686       C  0.53220801  0.96075407  0.25089279    -0.53700
C1687       C  0.52057290  0.48754314  0.26115155     0.09400
C1688       C  0.49165897  0.50699577  0.25817442     0.20400
C1689       C  0.97545530  0.95905471  0.25444598    -0.54500
C1690       C  0.96519378  0.48491275  0.26315403     0.09500
C1691       C  0.49701193  0.98574350  0.23172708    -0.54000
C1692       C  0.49011203  0.51163720  0.23931705     0.10100
H1693       H  0.55127597  0.94524070  0.25060096     0.14600
H1694       H  0.49119745  0.52841594  0.26533919     0.00300
H1695       H  0.95878835  0.94112999  0.25603617     0.14900
H1696       H  0.49330710  0.98640667  0.21842323     0.14700
O1697       O  0.97835877  0.76857253  0.84216904    -0.71800
O1698       O  0.98389705  0.70364284  0.87370823    -0.72000
O1699       O  0.98201837  0.76477900  0.87536243    -0.71900
O1700       O  0.97939348  0.70747824  0.84017497    -0.71900
O1701       O  0.53598482  0.70624352  0.83963859    -0.71800
O1702       O  0.53660670  0.76445912  0.87444411    -0.71800
O1703       O  0.53680862  0.70388338  0.87300810    -0.71800
O1704       O  0.53566447  0.76808910  0.84118361    -0.72000
V1705       V  0.98185230  0.73606451  0.85782363     1.35200
V1706       V  0.53530013  0.73565611  0.85698224     1.35200
C1707       C  0.51058936  0.77953470  0.83621833     0.77500
C1708       C  0.51218887  0.69321143  0.87880866     0.77500
C1709       C  0.51193376  0.77367762  0.88092113     0.77400
C1710       C  0.51100830  0.69612021  0.83393689     0.77400
N1711       N  0.49146040  0.58474327  0.47225509    -0.36600
N1712       N  0.94350313  0.58742111  0.49895965    -0.57200
N1713       N  0.49304752  0.58072197  0.52333272    -0.36600
N1714       N  0.53946054  0.58006213  0.49720580    -0.57200
C1715       C  0.96475216  0.58136578  0.46395296     0.27000
C1716       C  0.51598453  0.57870976  0.46255499     0.27000
C1717       C  0.96591151  0.57968204  0.53383662     0.27000
C1718       C  0.51831603  0.57333406  0.53223347     0.27000
C1719       C  0.92529589  0.59187440  0.48559281     0.35600
C1720       C  0.92559948  0.59068265  0.51250548     0.35600
C1721       C  0.55711173  0.58478731  0.48371649     0.35600
C1722       C  0.55804651  0.58242684  0.51054870     0.35600
C1723       C  0.97299153  0.57015644  0.44854815    -0.21900
C1724       C  0.50608708  0.56953686  0.44703525    -0.21900
C1725       C  0.97500138  0.57085644  0.54961608    -0.21900
C1726       C  0.50961431  0.56336461  0.54783970    -0.21900
C1727       C  0.89569687  0.59833642  0.49066620    -0.22900
C1728       C  0.89587780  0.59752711  0.50769695    -0.22900
C1729       C  0.58706970  0.59017103  0.48849848    -0.22900
C1730       C  0.58766752  0.58866459  0.50551156    -0.22900
C1731       C  0.93412467  0.58669918  0.46897075    -0.18300
C1732       C  0.54711089  0.58162191  0.46714815    -0.18300
C1733       C  0.54910182  0.57688801  0.52710920    -0.18300
C1734       C  0.93499059  0.58479393  0.52903805    -0.18300
H1735       H  0.95795594  0.56352439  0.43853863     0.14600
H1736       H  0.52000018  0.56317253  0.43652232     0.14600
H1737       H  0.96059091  0.56678629  0.56026742     0.14600
H1738       H  0.52434956  0.55618302  0.55792280     0.14600
H1739       H  0.87584065  0.60226913  0.48289427     0.12900
H1740       H  0.87620535  0.60081618  0.51561834     0.12900
H1741       H  0.60652466  0.59426624  0.48054042     0.12900
H1742       H  0.60768519  0.59140651  0.51327496     0.12900
H1743       H  0.49192595  0.59474908  0.48386537     0.26200
H1744       H  0.49283102  0.59178750  0.51198223     0.26200
C1745       C  0.94216800  0.88956863  0.20208396    -0.17800
C1746       C  0.94109719  0.86407823  0.19170157    -0.20000
C1747       C  0.96699388  0.84540589  0.18967053     0.20700
C1748       C  0.99408419  0.85252198  0.19834622    -0.02900
C1749       C  0.99510369  0.87815756  0.20882618    -0.06000
C1750       C  0.96914768  0.89694051  0.21067800     0.20900
C1751       C  0.52575183  0.88510296  0.21668078     0.19100
C1752       C  0.55253531  0.86860919  0.21332556    -0.17500
C1753       C  0.55156451  0.84317112  0.20318916    -0.19700
C1754       C  0.52382644  0.83390904  0.19617032     0.20600
C1755       C  0.52312700  0.80926575  0.18539126    -0.32700
C1756       C  0.99301024  0.80192978  0.17692726     0.01300
C1757       C  0.96654179  0.82001879  0.17902941    -0.24000
C1758       C  0.97078778  0.92274621  0.22097924    -0.28600
C1759       C  0.50044265  0.92783704  0.23039606     0.07000
C1760       C  0.52706846  0.91117260  0.22635473    -0.27300
H1761       H  0.92189804  0.90359618  0.20333238     0.11700
H1762       H  0.92003117  0.85907186  0.18518359     0.12800
H1763       H  0.57433840  0.87552296  0.21845753     0.11900
H1764       H  0.57261376  0.83098639  0.20064820     0.11100
H1765       H  0.54429734  0.79745793  0.18259215     0.16500
H1766       H  0.94591248  0.81474638  0.17216578     0.12400
H1767       H  0.95088071  0.93727511  0.22229485     0.15300
H1768       H  0.54950592  0.91849045  0.23001531     0.15100
C1769       C  0.54526383  0.62749249  0.20870660    -0.17800
C1770       C  0.54411963  0.60216458  0.21917398    -0.20000
C1771       C  0.51703313  0.58545172  0.22073165     0.20700
C1772       C  0.99119522  0.59141637  0.21045989    -0.02900
C1773       C  0.99199598  0.61715132  0.19994239    -0.06000
C1774       C  0.51927288  0.63669227  0.19970087     0.20900
C1775       C  0.96457900  0.62923164  0.19333424     0.19100
C1776       C  0.93661856  0.61545332  0.19732869    -0.17500
C1777       C  0.93582465  0.58989773  0.20767554    -0.19700
C1778       C  0.96296080  0.57766212  0.21429970     0.20600
C1779       C  0.96247984  0.55162764  0.22442036    -0.32700
C1780       C  0.48946611  0.54152381  0.23111209     0.01300
C1781       C  0.51619452  0.55893725  0.23038019    -0.24000
C1782       C  0.52066328  0.66098953  0.18841793    -0.28600
C1783       C  0.99384907  0.66779719  0.17832309     0.07000
C1784       C  0.96565821  0.65451088  0.18264042    -0.27300
H1785       H  0.56663704  0.63960928  0.20745508     0.11700
H1786       H  0.56461986  0.59527105  0.22578954     0.12800
H1787       H  0.91533193  0.62431780  0.19234288     0.11900
H1788       H  0.91395645  0.57960855  0.21043684     0.11100
H1789       H  0.94097617  0.54048706  0.22707672     0.16500
H1790       H  0.53666396  0.55106618  0.23670783     0.12400
H1791       H  0.54211570  0.67275565  0.18660705     0.15300
H1792       H  0.94457992  0.66345531  0.17742742     0.15100
C1793       C  0.57049247  0.61021670  0.93268996    -0.17800
C1794       C  0.56967736  0.63106754  0.91960557    -0.20000
C1795       C  0.54166820  0.64009630  0.91256280     0.20700
C1796       C  0.51413198  0.62829341  0.91892941    -0.02900
C1797       C  0.51495054  0.60713825  0.93214288    -0.06000
C1798       C  0.54332427  0.59793526  0.93896357     0.20900
C1799       C  0.99554444  0.59243081  0.93754654     0.19100
C1800       C  0.96677765  0.59894681  0.93060162    -0.17500
C1801       C  0.96394518  0.61949562  0.91743941    -0.19700
C1802       C  0.98983776  0.63389286  0.91091521     0.20600
C1803       C  0.98699905  0.65505051  0.89790129    -0.32700
C1804       C  0.51272923  0.67011304  0.89230153     0.01300
C1805       C  0.54079092  0.66076648  0.89930137    -0.24000
C1806       C  0.54408876  0.57639671  0.95180646    -0.28600
C1807       C  0.02719898  0.56524614  0.95771691     0.07000
C1808       C  0.99842948  0.57189262  0.95078513    -0.27300
H1809       H  0.59244048  0.60351307  0.93782820     0.11700
H1810       H  0.59102261  0.64005275  0.91493969     0.12800
H1811       H  0.94638561  0.58820931  0.93540193     0.11900
H1812       H  0.94141782  0.62422520  0.91239769     0.11100
H1813       H  0.96454043  0.66034438  0.89291665     0.16500
H1814       H  0.56204607  0.66981675  0.89453537     0.12400
H1815       H  0.56582179  0.56908125  0.95699018     0.15300
H1816       H  0.97831373  0.56067900  0.95562917     0.15100
C1817       C  0.56758437  0.84532284  0.91698426    -0.17800
C1818       C  0.56759499  0.86785935  0.92913021    -0.20000
C1819       C  0.54031296  0.87626845  0.93704349     0.20700
C1820       C  0.51277421  0.86150006  0.93283190    -0.02900
C1821       C  0.51277493  0.83873648  0.92056361    -0.06000
C1822       C  0.54027457  0.83084079  0.91249879     0.20900
C1823       C  0.98011810  0.83378736  0.91199067     0.19100
C1824       C  0.95269322  0.84727286  0.91730756    -0.17500
C1825       C  0.95281317  0.86872049  0.93003355    -0.19700
C1826       C  0.98036809  0.87715711  0.93764548     0.20600
C1827       C  0.98067708  0.89867379  0.95041500    -0.32700
C1828       C  0.00838868  0.90719868  0.95785458     0.01300
C1829       C  0.54007442  0.89911458  0.94910248    -0.24000
C1830       C  0.53990539  0.80907359  0.89985946    -0.28600
C1831       C  0.51233774  0.79528428  0.89498975     0.07000
C1832       C  0.98009648  0.81195817  0.89936822    -0.27300
H1833       H  0.58892162  0.83944268  0.91096286     0.11700
H1834       H  0.58894234  0.87884960  0.93226631     0.12800
H1835       H  0.93109035  0.84113979  0.91165604     0.11900
H1836       H  0.93131817  0.87870856  0.93393075     0.11100
H1837       H  0.95948101  0.90905761  0.95450778     0.16500
H1838       H  0.56113239  0.91044781  0.95247292     0.12400
H1839       H  0.56101800  0.80341267  0.89353961     0.15300
H1840       H  0.95860017  0.80562200  0.89365150     0.15100
C1841       C  0.94987678  0.86774234  0.07023012    -0.17800
C1842       C  0.94907454  0.84542186  0.08253931    -0.20000
C1843       C  0.97630725  0.83271406  0.08873238     0.20700
C1844       C  0.00469266  0.84274605  0.08255395    -0.02900
C1845       C  0.00550804  0.86514216  0.07000707    -0.06000
C1846       C  0.97791402  0.87757854  0.06380046     0.20900
C1847       C  0.53418749  0.87750734  0.06540283     0.19100
C1848       C  0.56080933  0.87024448  0.07437187    -0.17500
C1849       C  0.55991339  0.84889147  0.08723305    -0.19700
C1850       C  0.53233887  0.83457880  0.09141523     0.20600
C1851       C  0.53131438  0.81251359  0.10399839    -0.32700
C1852       C  0.00279885  0.79769767  0.10746313     0.01300
C1853       C  0.97556010  0.81020351  0.10102033    -0.24000
C1854       C  0.97879833  0.89943641  0.05118191    -0.28600
C1855       C  0.00683849  0.90879434  0.04455676     0.07000
C1856       C  0.53489629  0.89837783  0.05224263    -0.27300
H1857       H  0.92852103  0.87714946  0.06563966     0.11700
H1858       H  0.92710275  0.83806133  0.08721143     0.12800
H1859       H  0.58238630  0.88087884  0.07134362     0.11900
H1860       H  0.58084071  0.84343343  0.09384696     0.11100
H1861       H  0.55213247  0.80631907  0.11053471     0.16500
H1862       H  0.95364873  0.80258960  0.10567176     0.12400
H1863       H  0.95769411  0.90907506  0.04636421     0.15300
H1864       H  0.55612879  0.90942798  0.04892541     0.15100
C1865       C  0.96043348  0.59685739  0.07011133    -0.17800
C1866       C  0.95729843  0.61846740  0.08265647    -0.20000
C1867       C  0.98306484  0.63335728  0.08902527     0.20700
C1868       C  0.01230845  0.62641972  0.08262733    -0.02900
C1869       C  0.01548183  0.60463476  0.06992511    -0.06000
C1870       C  0.98938811  0.58975860  0.06366656     0.20900
C1871       C  0.53947354  0.59809835  0.06279687     0.19100
C1872       C  0.56570510  0.61315096  0.06840545    -0.17500
C1873       C  0.56357289  0.63484590  0.08094284    -0.19700
C1874       C  0.53519058  0.64177179  0.08814448     0.20600
C1875       C  0.53294929  0.66333680  0.10081462    -0.32700
C1876       C  0.00600063  0.66971626  0.10812835     0.01300
C1877       C  0.98008924  0.65499492  0.10167963    -0.24000
C1878       C  0.99272277  0.56806485  0.05109487    -0.28600
C1879       C  0.02178749  0.56109171  0.04470566     0.07000
C1880       C  0.54140128  0.57638352  0.05018313    -0.27300
H1881       H  0.94016971  0.58566978  0.06544774     0.11700
H1882       H  0.93467722  0.62349600  0.08740679     0.12800
H1883       H  0.58789211  0.60816654  0.06307913     0.11900
H1884       H  0.58417144  0.64617261  0.08504101     0.11100
H1885       H  0.55340450  0.67485008  0.10498807     0.16500
H1886       H  0.95760000  0.66028370  0.10654465     0.12400
H1887       H  0.97279391  0.55653245  0.04623953     0.15300
H1888       H  0.56332970  0.57093043  0.04466092     0.15100
C1889       C  0.85797639  0.52147176  0.44186327    -0.17800
C1890       C  0.83659342  0.51614194  0.42931684    -0.20000
C1891       C  0.82980024  0.53867626  0.41756269     0.20700
C1892       C  0.84467513  0.56692677  0.41845678    -0.02900
C1893       C  0.86628995  0.57233474  0.43115124    -0.06000
C1894       C  0.87287286  0.54946115  0.44291030     0.20900
C1895       C  0.88145680  0.60047100  0.43200446     0.19100
C1896       C  0.87476522  0.62292728  0.42015785    -0.17500
C1897       C  0.85324963  0.61759324  0.40760667    -0.19700
C1898       C  0.83809261  0.58966598  0.40663171     0.20600
C1899       C  0.81668227  0.58395480  0.39399059    -0.32700
C1900       C  0.80195978  0.55568688  0.39294412     0.01300
C1901       C  0.80858198  0.53328520  0.40486481    -0.24000
C1902       C  0.89441391  0.55484216  0.45543393    -0.28600
C1903       C  0.90964194  0.58268038  0.45633263     0.07000
C1904       C  0.90318920  0.60544604  0.44459386    -0.27300
H1905       H  0.86289301  0.50365607  0.45075342     0.11700
H1906       H  0.82542069  0.49431566  0.42877730     0.12800
H1907       H  0.88620477  0.64462508  0.42058555     0.11900
H1908       H  0.84854383  0.63529737  0.39861687     0.11100
H1909       H  0.81176176  0.60138516  0.38486643     0.16500
H1910       H  0.79728092  0.51151716  0.40424185     0.12400
H1911       H  0.89984294  0.53720972  0.46436550     0.14100
H1912       H  0.91531017  0.62677506  0.44521037     0.15100
C1913       C  0.62228192  0.61349745  0.40431221    -0.17800
C1914       C  0.60173347  0.61852119  0.41731588    -0.20000
C1915       C  0.59600044  0.59568761  0.42903542     0.20700
C1916       C  0.61069140  0.56729331  0.42744132    -0.02900
C1917       C  0.63103691  0.56208839  0.41418557    -0.06000
C1918       C  0.63723460  0.58545241  0.40270255     0.20900
C1919       C  0.64545122  0.53361237  0.41256010     0.19100
C1920       C  0.63927124  0.51053399  0.42404384    -0.17500
C1921       C  0.61938235  0.51577767  0.43726147    -0.19700
C1922       C  0.60514963  0.54409603  0.43912486     0.20600
C1923       C  0.58527120  0.54952251  0.45238540    -0.32700
C1924       C  0.57046456  0.57761813  0.45398001     0.01300
C1925       C  0.57575413  0.60060927  0.44226704    -0.24000
C1926       C  0.65866110  0.58050543  0.39002293    -0.28600
C1927       C  0.67364080  0.55236754  0.38860586     0.07000
C1928       C  0.66632328  0.52886297  0.39970387    -0.27300
H1929       H  0.62660701  0.63162325  0.39556068     0.11700
H1930       H  0.59053020  0.64038324  0.41829441     0.12800
H1931       H  0.65012159  0.48851805  0.42291826     0.11900
H1932       H  0.61517941  0.49768956  0.44605512     0.11100
H1933       H  0.58065535  0.53170118  0.46129587     0.16500
H1934       H  0.56387423  0.62210746  0.44342200     0.12400
H1935       H  0.66397025  0.59862863  0.38142531     0.15300
H1936       H  0.67766277  0.50705168  0.39869927     0.15100
C1937       C  0.85717833  0.55849465  0.29178812    -0.17800
C1938       C  0.88279851  0.55286256  0.28190127    -0.20000
C1939       C  0.90023848  0.52640957  0.28415335     0.20700
C1940       C  0.89211127  0.50560957  0.29669518    -0.02900
C1941       C  0.86637722  0.51143362  0.30677557    -0.06000
C1942       C  0.84868270  0.53789344  0.30419608     0.20900
C1943       C  0.85811744  0.49060736  0.31925160     0.19100
C1944       C  0.87548845  0.95708168  0.31646309    -0.17500
C1945       C  0.90089566  0.95123834  0.30640488    -0.19700
C1946       C  0.91356443  0.97432273  0.29662015     0.20600
C1947       C  0.93852734  0.96846234  0.28612299    -0.32700
C1948       C  0.94129719  0.49267217  0.27539669     0.01300
C1949       C  0.92511893  0.52002005  0.27377539    -0.24000
C1950       C  0.82271931  0.54324682  0.31398875    -0.28600
C1951       C  0.81407443  0.52243521  0.32629860     0.07000
C1952       C  0.83201227  0.49620838  0.32889698    -0.27300
H1953       H  0.84388618  0.57892383  0.28966106     0.11700
H1954       H  0.88872537  0.56902105  0.27231917     0.12800
H1955       H  0.86608578  0.93882253  0.32383106     0.11900
H1956       H  0.91051824  0.92858044  0.30619620     0.11100
H1957       H  0.94816273  0.94582164  0.28558549     0.16500
H1958       H  0.93106386  0.53567361  0.26393110     0.12400
H1959       H  0.80910017  0.56350814  0.31193841     0.15300
H1960       H  0.82676370  0.97394041  0.33414716     0.15100
C1961       C  0.62426810  0.95086155  0.29192484    -0.17800
C1962       C  0.62593233  0.45815838  0.30995853    -0.20000
C1963       C  0.63847562  0.48727129  0.31088629     0.20700
C1964       C  0.62418350  0.51151734  0.30238063    -0.02900
C1965       C  0.59751430  0.50628070  0.29287812    -0.06000
C1966       C  0.58532213  0.47684014  0.29197447     0.20900
C1967       C  0.58319027  0.53036630  0.28422364     0.19100
C1968       C  0.59557777  0.55959008  0.28536926    -0.17500
C1969       C  0.62193041  0.56482643  0.29488714    -0.19700
C1970       C  0.63648430  0.54092355  0.30339657     0.20600
C1971       C  0.66282114  0.54590596  0.31308279    -0.32700
C1972       C  0.67697684  0.52182680  0.32178031     0.01300
C1973       C  0.66478487  0.49254018  0.32039696    -0.24000
C1974       C  0.55945233  0.47150157  0.28220278    -0.28600
C1975       C  0.54566334  0.49497277  0.27296896     0.07000
C1976       C  0.55718531  0.52458894  0.27435258    -0.27300
H1977       H  0.61821876  0.92757663  0.28934178     0.11700
H1978       H  0.66362000  0.93780243  0.30622314     0.12800
H1979       H  0.58495812  0.57839266  0.27884565     0.11900
H1980       H  0.63097217  0.58759319  0.29556334     0.11100
H1981       H  0.67187543  0.56862839  0.31413375     0.16500
H1982       H  0.67530276  0.47387240  0.32709718     0.12400
H1983       H  0.57246874  0.94575140  0.27527928     0.15300
H1984       H  0.54665863  0.54282661  0.26732613     0.15100
C1985       C  0.61840464  0.51187334  0.56013122    -0.17800
C1986       C  0.63771656  0.50760724  0.57379133    -0.20000
C1987       C  0.64501236  0.53197418  0.58417464     0.20700
C1988       C  0.63227486  0.56081806  0.58097348    -0.02900
C1989       C  0.61261147  0.56509629  0.56723484    -0.06000
C1990       C  0.60587336  0.54053239  0.55668971     0.20900
C1991       C  0.59974331  0.59392995  0.56404723     0.19100
C1992       C  0.60654700  0.61812583  0.57464478    -0.17500
C1993       C  0.62630227  0.61394940  0.58815389    -0.19700
C1994       C  0.63949348  0.58545810  0.59135831     0.20600
C1995       C  0.66029769  0.58131655  0.60450649    -0.32700
C1996       C  0.67391376  0.55281601  0.60741047     0.01300
C1997       C  0.66544382  0.52812060  0.59743613    -0.24000
C1998       C  0.58634892  0.54497276  0.54305735    -0.28600
C1999       C  0.57316254  0.57351128  0.54001038     0.07000
C2000       C  0.57999409  0.59791926  0.55046095    -0.27300
H2001       H  0.61330463  0.49274721  0.55223757     0.11700
H2002       H  0.64725573  0.48529311  0.57612108     0.12800
H2003       H  0.59672685  0.64035618  0.57242494     0.11900
H2004       H  0.63144631  0.63308506  0.59603056     0.11100
H2005       H  0.66636947  0.60039786  0.61223729     0.16500
H2006       H  0.67553236  0.50598830  0.59964041     0.12400
H2007       H  0.58054576  0.52609861  0.53510798     0.15300
H2008       H  0.56934657  0.61977374  0.54817816     0.15100
C2009       C  0.86916880  0.51672847  0.56191181    -0.17800
C2010       C  0.84833085  0.51178504  0.57477435    -0.20000
C2011       C  0.83720948  0.53611304  0.58420481     0.20700
C2012       C  0.84754346  0.56569968  0.58076160    -0.02900
C2013       C  0.86872277  0.57069906  0.56778796    -0.06000
C2014       C  0.87938916  0.54608046  0.55826192     0.20900
C2015       C  0.87920403  0.60028129  0.56435935     0.19100
C2016       C  0.86845426  0.62451760  0.57398378    -0.17500
C2017       C  0.84733683  0.61958544  0.58675119    -0.19700
C2018       C  0.83662361  0.59029263  0.59021494     0.20600
C2019       C  0.81507165  0.58519844  0.60287016    -0.32700
C2020       C  0.80427215  0.55577756  0.60626455     0.01300
C2021       C  0.81576852  0.53135763  0.59690807    -0.24000
C2022       C  0.90025368  0.55119188  0.54535141    -0.28600
C2023       C  0.91091695  0.58052055  0.54192346     0.07000
C2024       C  0.90035103  0.60500621  0.55146133    -0.27300
H2025       H  0.87726962  0.49755478  0.55479117     0.11700
H2026       H  0.84422200  0.98451082  0.57658913     0.12800
H2027       H  0.87629744  0.64735337  0.57159678     0.11900
H2028       H  0.83931472  0.63874644  0.59390484     0.11100
H2029       H  0.80655490  0.60419654  0.60999672     0.16500
H2030       H  0.80783107  0.50858160  0.59940721     0.12400
H2031       H  0.90872823  0.53230707  0.53810896     0.15300
H2032       H  0.90885908  0.62756290  0.54892239     0.15100
C2033       C  0.94983083  0.64069829  0.78873829    -0.17800
C2034       C  0.94858333  0.61563660  0.77805509    -0.20000
C2035       C  0.97295980  0.59475059  0.77736501     0.20700
C2036       C  0.50449165  0.59554068  0.78925226    -0.02900
C2037       C  0.50682455  0.62128833  0.79962948    -0.06000
C2038       C  0.97568902  0.64569640  0.79877387     0.20900
C2039       C  0.53372129  0.62627276  0.80894627     0.19100
C2040       C  0.55802284  0.60542853  0.80779505    -0.17500
C2041       C  0.55548531  0.57964894  0.79778894    -0.19700
C2042       C  0.52876669  0.57439494  0.78853187     0.20600
C2043       C  0.52561029  0.54812224  0.77884108    -0.32700
C2044       C  0.49882454  0.54304975  0.76951897     0.01300
C2045       C  0.97116468  0.56822791  0.76763310    -0.24000
C2046       C  0.97667257  0.66980509  0.81026568    -0.28600
C2047       C  0.51042160  0.67146622  0.82133805     0.07000
C2048       C  0.53552540  0.65155200  0.81953669    -0.27300
H2049       H  0.93037595  0.65596525  0.78930490     0.11700
H2050       H  0.92820760  0.61218514  0.77063597     0.12800
H2051       H  0.57884645  0.60880463  0.81485041     0.11900
H2052       H  0.57439971  0.56371138  0.79736077     0.11100
H2053       H  0.54382247  0.53135329  0.77867323     0.16500
H2054       H  0.95070040  0.56366291  0.76048107     0.12400
H2055       H  0.95701875  0.68466888  0.81158642     0.15300
H2056       H  0.55601568  0.65503640  0.82686909     0.15100
C2057       C  0.55515441  0.89922933  0.80306481    -0.17800
C2058       C  0.55657932  0.87388636  0.81358132    -0.20000
C2059       C  0.53292335  0.85244152  0.81367685     0.20700
C2060       C  0.50754555  0.85674595  0.80306285    -0.02900
C2061       C  0.50637021  0.88212453  0.79223843    -0.06000
C2062       C  0.53019837  0.90353241  0.79228420     0.20900
C2063       C  0.97864229  0.88514906  0.78039444     0.19100
C2064       C  0.95661447  0.86225623  0.77889066    -0.17500
C2065       C  0.95629207  0.83780909  0.78995047    -0.19700
C2066       C  0.97832966  0.83547282  0.80255091     0.20600
C2067       C  0.97829509  0.81079750  0.81361194    -0.32700
C2068       C  0.50985751  0.80594057  0.82461894     0.01300
C2069       C  0.53412210  0.82688137  0.82420889    -0.24000
C2070       C  0.52862727  0.92888355  0.78162856    -0.28600
C2071       C  0.50378699  0.93320393  0.77058603     0.07000
C2072       C  0.97846088  0.91007858  0.76956108    -0.27300
H2073       H  0.57368721  0.91543000  0.80332078     0.11700
H2074       H  0.57618896  0.87111560  0.82169275     0.12800
H2075       H  0.93937144  0.86341501  0.76923969     0.11900
H2076       H  0.93886929  0.82061982  0.78858516     0.11100
H2077       H  0.96088963  0.79349560  0.81254561     0.16500
H2078       H  0.55365092  0.82360589  0.83233641     0.12400
H2079       H  0.54684104  0.94545360  0.78191287     0.15300
H2080       H  0.96144000  0.91028363  0.75991334     0.15100
C2081       C  0.60553101  0.45384006  0.70235466    -0.17800
C2082       C  0.63165948  0.45993447  0.69298960    -0.20000
C2083       C  0.63945669  0.48985120  0.68898936     0.20700
C2084       C  0.62066720  0.51389184  0.69445511    -0.02900
C2085       C  0.59439340  0.50771911  0.70411085    -0.06000
C2086       C  0.58693027  0.47756863  0.70809333     0.20900
C2087       C  0.57583713  0.53165101  0.70991718     0.19100
C2088       C  0.58321269  0.56155561  0.70548942    -0.17500
C2089       C  0.60906234  0.56767141  0.69576582    -0.19700
C2090       C  0.62817731  0.54402992  0.69033324     0.20600
C2091       C  0.65442372  0.54988533  0.68072193    -0.32700
C2092       C  0.67309992  0.52591794  0.67505674     0.01300
C2093       C  0.66549193  0.49601366  0.67943209    -0.24000
C2094       C  0.56144576  0.47153294  0.71806445    -0.28600
C2095       C  0.54379920  0.49518458  0.72496370     0.07000
C2096       C  0.55083753  0.52529704  0.72040196    -0.27300
H2097       H  0.60927007  0.93410254  0.70461066     0.11700
H2098       H  0.65287417  0.94423769  0.68648955     0.12800
H2099       H  0.56913506  0.58027588  0.70967602     0.11900
H2100       H  0.61424127  0.59095252  0.69260730     0.11100
H2101       H  0.65986578  0.57300027  0.67731656     0.16500
H2102       H  0.67960869  0.47737061  0.67515584     0.12400
H2103       H  0.56803372  0.95221370  0.72231604     0.15300
H2104       H  0.53777527  0.54398050  0.72542232     0.15100
C2105       C  0.86108514  0.46375513  0.68649901    -0.17800
C2106       C  0.89238282  0.95632569  0.69991719    -0.20000
C2107       C  0.89951017  0.48173601  0.70587786     0.20700
C2108       C  0.88639605  0.51097930  0.70522779    -0.02900
C2109       C  0.86039841  0.51647266  0.69515570    -0.06000
C2110       C  0.84773392  0.49269644  0.68579128     0.20900
C2111       C  0.84712177  0.54567101  0.69444918     0.19100
C2112       C  0.85995336  0.56904505  0.70393137    -0.17500
C2113       C  0.88569252  0.56358151  0.71395307    -0.19700
C2114       C  0.89913204  0.53463130  0.71469985     0.20600
C2115       C  0.92466641  0.52871923  0.72495072    -0.32700
C2116       C  0.93717363  0.49933507  0.72603829     0.01300
C2117       C  0.93377805  0.97450741  0.71750347    -0.24000
C2118       C  0.82213689  0.49824494  0.67572540    -0.28600
C2119       C  0.80896578  0.52735842  0.67463715     0.07000
C2120       C  0.82148811  0.55096874  0.68417027    -0.27300
H2121       H  0.85451932  0.94321817  0.68463753     0.11700
H2122       H  0.89947388  0.93306637  0.70199081     0.12800
H2123       H  0.85008758  0.59159839  0.70359165     0.11900
H2124       H  0.89503774  0.58201045  0.72116960     0.11100
H2125       H  0.93410135  0.54666198  0.73248552     0.16500
H2126       H  0.94106935  0.95127221  0.71940915     0.12400
H2127       H  0.81277515  0.47983517  0.66848579     0.15300
H2128       H  0.81153762  0.57346955  0.68345806     0.15100
loop_ 
_geom_bond_atom_site_label_1 
_geom_bond_atom_site_label_2 
_geom_bond_distance 
_geom_bond_site_symmetry_2 
_ccdc_geom_bond_type 
C1            C2   1.539       .  S
C1            C7   1.531       .  S
C1         C1069   1.541       .  S
C1         C1539   1.542       .  S
C2            H9   1.083       .  S
C2          C535   1.368       .  D
C3            C4   1.546   1_565  S
C3          C534   1.372       .  D
C3          C520   1.499       .  S
C4         C1072   1.541       .  S
C4         C1070   1.550   1_545  S
C4           H10   1.109       .  S
C5         C1065   1.540   1_455  S
C5           H11   1.085       .  S
C5          C538   1.373       .  D
C6         C1068   1.551   1_565  S
C6          C537   1.374       .  D
C6          C499   1.507       .  S
C7           H12   1.087       .  S
C7         C1604   1.364       .  D
C8         C1068   1.544   1_655  S
C8         C1603   1.363   1_545  D
C8          C448   1.476       .  S
O13          V21   1.908       .  S
O13          C23   1.267       .  A
O14          V21   1.917       .  S
O14          C24   1.268       .  A
O15          V21   1.916       .  S
O15          C25   1.268       .  A
O16          V21   1.915       .  S
O16          C26   1.268       .  A
O17         V554   1.897       .  S
O17          C26   1.265       .  A
O18          V22   1.901       .  S
O18         C557   1.265       .  A
O19          V22   1.914       .  S
O19         C556   1.269       .  A
O20         V554   1.904       .  S
O20          C23   1.266       .  A
V21         V554   2.084       .  T
V22         O549   1.898       .  S
V22         O552   1.911       .  S
V22         V553   2.084       .  T
C23         C424   1.489       .  S
C24         O551   1.267       .  A
C24         C496   1.496       .  S
C25         O550   1.265       .  A
C25         C523   1.492       .  S
C26         C400   1.489       .  S
O27          V35   1.911       .  S
O27          C37   1.266       .  A
O28          V35   1.909       .  S
O28          C38   1.268       .  A
O29          V35   1.910       .  S
O29          C39   1.267       .  A
O30          V35   1.910       .  S
O30          C40   1.267       .  A
O31         V568   1.905       .  S
O31          C40   1.267       .  A
O32          V36   1.893       .  S
O32         C571   1.264       .  A
O33          V36   1.901       .  S
O33         C570   1.265       .  A
O34         V568   1.888       .  S
O34          C37   1.264       .  A
V35         V568   2.084       .  T
V36         O563   1.892       .  S
V36         O566   1.895       .  S
V36         V567   2.084       .  T
C37         C331   1.481       .  S
C38         O565   1.263       .  A
C38         C355   1.486       .  S
C39         O564   1.267       .  A
C39         C376   1.491       .  S
C40         C304   1.490       .  S
N41          H73   1.035       .  S
N41          C45   1.355       .  A
N41         C578   1.352       .  A
N42          C49   1.354       .  A
N42          C50   1.352   1_554  A
N43          H74   1.037       .  S
N43          C47   1.354       .  A
N43         C580   1.355       .  A
N44          C51   1.351       .  A
N44          C52   1.351   1_554  A
C45          C53   1.386       .  A
C45          C61   1.417       .  A
C46         N573   1.355   1_545  A
C46          C62   1.418       .  A
C46          C54   1.387   1_545  A
C47          C55   1.388       .  A
C47          C64   1.418       .  A
C48         N575   1.351   1_545  A
C48          C63   1.421       .  A
C48          C56   1.389       .  A
C49          C61   1.414       .  A
C49          C57   1.385       .  A
C50          C64   1.416       .  A
C50          C58   1.387       .  A
C51          C59   1.386       .  A
C51          C62   1.414       .  A
C52          C60   1.388       .  A
C52          C63   1.418       .  A
C53         C586   1.376       .  A
C53          H65   1.082       .  S
C54         C585   1.371       .  A
C54          H66   1.082   1_565  S
C55         C588   1.378       .  A
C55          H67   1.082       .  S
C56         C587   1.375   1_545  A
C56          H68   1.082       .  S
C57          C58   1.373   1_554  A
C57          H69   1.082       .  S
C58          H70   1.082       .  S
C59          C60   1.372   1_554  A
C59          H71   1.082       .  S
C60          H72   1.082       .  S
C61         C259   1.489       .  S
C62         C283   1.484       .  S
C63         C211   1.479       .  S
C64         C232   1.484       .  S
O75          V83   1.904       .  S
O75        C1149   1.266   1_455  A
O76          V83   1.905       .  S
O76        C1150   1.267   1_455  A
O77          V83   1.905       .  S
O77        C1151   1.265       .  A
O78          V83   1.902       .  S
O78        C1152   1.265   1_455  A
O79          V84   1.914       .  S
O79          C88   1.268       .  A
O80          V84   1.912       .  S
O80          C87   1.268       .  A
O81          V84   1.896       .  S
O81          C86   1.263       .  A
O82          V84   1.896       .  S
O82          C85   1.264       .  A
V83        V1148   2.086   1_455  T
V84        V1147   2.085       .  T
C85        O1139   1.267       .  A
C85         C160   1.483       .  S
C86        O1140   1.267       .  A
C86         C280   1.482       .  S
C87        O1141   1.265       .  A
C87         C256   1.488       .  S
C88        O1142   1.265       .  A
C88         C187   1.491       .  S
C89          C90   1.543   1_655  S
C89          C95   1.539       .  S
C89        C1157   1.536       .  S
C89         C163   1.533       .  S
C90          H97   1.080       .  S
C90         C623   1.366       .  D
C91          C92   1.542   1_565  S
C91         C622   1.361       .  D
C91         C379   1.495       .  S
C92          C96   1.540   1_455  S
C92        C1158   1.548   1_445  S
C92          H98   1.110       .  S
C93        C1153   1.543       .  S
C93          H99   1.086       .  S
C93         C626   1.371       .  D
C94        C1156   1.549   1_565  S
C94         C625   1.371       .  D
C94         C352   1.489       .  S
C95         H100   1.086       .  S
C95         C628   1.362       .  D
C96         C627   1.370   1_545  D
C96         C184   1.483       .  S
O101        V109   1.907       .  S
O101       C1175   1.267       .  A
O102        V109   1.901       .  S
O102       C1176   1.265       .  A
O103        V109   1.912       .  S
O103       C1177   1.267       .  A
O104        V109   1.913       .  S
O104       C1178   1.268       .  A
O105        V110   1.895       .  S
O105        C114   1.264   1_455  A
O106        V110   1.887       .  S
O106        C113   1.262       .  A
O107        V110   1.904       .  S
O107        C112   1.266       .  A
O108        V110   1.912       .  S
O108        C111   1.267       .  A
V109       V1174   2.085       .  T
V110       V1173   2.086   1_455  T
C111       O1165   1.267   1_455  A
C111        C472   1.494       .  S
C112       O1166   1.265   1_455  A
C112        C208   1.482       .  S
C113       O1167   1.265   1_455  A
C113        C235   1.475       .  S
C114       O1168   1.266       .  A
C114        C451   1.481       .  S
N115        H147   1.038       .  S
N115        C120   1.355       .  A
N115       C1183   1.356   1_455  A
N116        C123   1.355       .  A
N116        C124   1.355       .  A
N117        H148   1.035       .  S
N117        C122   1.354       .  A
N117       C1185   1.354   1_455  A
N118        C125   1.352       .  A
N118        C126   1.354       .  A
C119       N1179   1.356       .  A
C119        C127   1.389       .  A
C119        C135   1.424       .  A
C120        C136   1.417       .  A
C120        C128   1.388       .  A
C121       N1181   1.356       .  A
C121        C129   1.387       .  A
C121        C138   1.418       .  A
C122        C137   1.418       .  A
C122        C130   1.388       .  A
C123        C135   1.420       .  A
C123        C131   1.387       .  A
C124        C138   1.419       .  A
C124        C132   1.386       .  A
C125        C133   1.387       .  A
C125        C136   1.417       .  A
C126        C134   1.385       .  A
C126        C137   1.416       .  A
C127       C1192   1.375       .  A
C127        H139   1.082       .  S
C128       C1191   1.372   1_455  A
C128        H140   1.082       .  S
C129       C1194   1.373       .  A
C129        H141   1.082       .  S
C130       C1193   1.374   1_455  A
C130        H142   1.082       .  S
C131        C132   1.375       .  A
C131        H143   1.082       .  S
C132        H144   1.082       .  S
C133        C134   1.372       .  A
C133        H145   1.082       .  S
C134        H146   1.082       .  S
C135        C307   1.494       .  S
C136        C328   1.486       .  S
C137        C403   1.487       .  S
C138        C427   1.493       .  S
C149        C150   1.400       .  A
C149        C154   1.404       .  A
C149        H165   1.083       .  S
C150        C151   1.404       .  A
C150        H166   1.084       .  S
C151        C161   1.403       .  A
C151        C152   1.410       .  A
C152        C153   1.413       .  A
C152       C1222   1.412       .  A
C153        C154   1.411       .  A
C153       C1219   1.408       .  A
C154        C162   1.406       .  A
C155        C164   1.401       .  A
C155        C156   1.404       .  A
C155       C1217   1.408   1_455  A
C156        C157   1.398       .  A
C156        H167   1.084       .  S
C157        C158   1.402       .  A
C157        H168   1.084       .  S
C158        C159   1.403       .  A
C158       C1216   1.413   1_455  A
C159       C1224   1.405   1_455  A
C159        H169   1.084       .  S
C160        C161   1.409       .  A
C160       C1223   1.407       .  A
C161        H170   1.084       .  S
C162       C1227   1.411       .  A
C162        H171   1.083       .  S
C163        C164   1.413   1_655  A
C163       C1226   1.412       .  A
C164        H172   1.077       .  S
C173        C174   1.400       .  A
C173        C178   1.404       .  A
C173        H189   1.083       .  S
C174        C175   1.403       .  A
C174        H190   1.084       .  S
C175        C185   1.405       .  A
C175       C1240   1.412   1_455  A
C176        C182   1.412       .  A
C176        C177   1.416       .  A
C176       C1239   1.413       .  A
C177        C179   1.412       .  A
C177       C1242   1.411       .  A
C178        C186   1.405       .  A
C178       C1241   1.411   1_455  A
C179        C188   1.407       .  A
C179        C180   1.404       .  A
C180        C181   1.400       .  A
C180        H191   1.083       .  S
C181        C182   1.403       .  A
C181        H192   1.083       .  S
C182        C183   1.405       .  A
C183       C1248   1.405       .  A
C183        H193   1.084       .  S
C184        C185   1.403   1_655  A
C184       C1247   1.406       .  A
C185        H194   1.081       .  S
C186       C1251   1.408   1_455  A
C186        H195   1.084       .  S
C187        C188   1.408       .  A
C187       C1250   1.411       .  A
C188        H196   1.084       .  S
C197        C198   1.400       .  A
C197        C202   1.403       .  A
C197        H213   1.084       .  S
C198        C199   1.404       .  A
C198        H214   1.084       .  S
C199        C209   1.404       .  A
C199        C200   1.411       .  A
C200        C201   1.412       .  A
C200       C1270   1.411   1_455  A
C201        C202   1.413       .  A
C201       C1267   1.412   1_455  A
C202        C210   1.404       .  A
C203        C212   1.401       .  A
C203        C204   1.403       .  A
C203       C1265   1.412       .  A
C204        C205   1.399       .  A
C204        H215   1.084       .  S
C205        C206   1.404       .  A
C205        H216   1.083       .  S
C206        C207   1.403       .  A
C206       C1264   1.412       .  A
C207       C1272   1.407       .  A
C207        H217   1.084       .  S
C208        C209   1.408       .  A
C208       C1271   1.408   1_455  A
C209        H218   1.084       .  S
C210       C1275   1.403       .  A
C210        H219   1.084       .  S
C211        C212   1.402       .  A
C211       C1274   1.402       .  A
C212        H220   1.084       .  S
C221        C222   1.397       .  A
C221        C226   1.403       .  A
C221        H237   1.084       .  S
C222        C223   1.402       .  A
C222        H238   1.084       .  S
C223        C233   1.400       .  A
C223        C224   1.413       .  A
C224        C225   1.408       .  A
C224       C1294   1.411   1_455  A
C225        C226   1.410       .  A
C225       C1291   1.412   1_455  A
C226        C234   1.397       .  A
C227        C236   1.408       .  A
C227        C228   1.404       .  A
C227       C1289   1.413       .  A
C228        C229   1.400       .  A
C228        H239   1.083       .  S
C229        C230   1.404       .  A
C229        H240   1.084       .  S
C230        C231   1.402       .  A
C230       C1288   1.411       .  A
C231        C232   1.404       .  A
C231        H241   1.084       .  S
C232       C1297   1.403       .  A
C233       C1296   1.401       .  A
C233        H242   1.084       .  S
C234        C235   1.406       .  A
C234        H243   1.084       .  S
C235       C1300   1.406   1_455  A
C236       C1299   1.408       .  A
C236        H244   1.084       .  S
C245        C246   1.401       .  A
C245        C250   1.404       .  A
C245        H261   1.083       .  S
C246        C247   1.404       .  A
C246        H262   1.083       .  S
C247        C257   1.408       .  A
C247        C248   1.412       .  A
C248        C249   1.415       .  A
C248       C1318   1.411       .  A
C249        C250   1.412       .  A
C249       C1315   1.413       .  A
C250        C258   1.406       .  A
C251        C260   1.407       .  A
C251        C252   1.404       .  A
C251       C1313   1.412       .  A
C252        C253   1.401       .  A
C252        H263   1.083       .  S
C253        C254   1.405       .  A
C253        H264   1.083       .  S
C254        C255   1.408       .  A
C254       C1312   1.412       .  A
C255       C1320   1.410       .  A
C255        H265   1.084       .  S
C256        C257   1.408       .  A
C256       C1319   1.410       .  A
C257        H266   1.084       .  S
C258        C259   1.405       .  A
C258        H267   1.084       .  S
C259       C1324   1.404       .  A
C260       C1323   1.406       .  A
C260        H268   1.084       .  S
C269        C270   1.401       .  A
C269        C274   1.404       .  A
C269        H285   1.084       .  S
C270        C271   1.405       .  A
C270        H286   1.084       .  S
C271        C281   1.405       .  A
C271        C272   1.410       .  A
C272        C273   1.412       .  A
C272       C1342   1.412       .  A
C273        C274   1.413       .  A
C273       C1339   1.411       .  A
C274        C282   1.407       .  A
C275        C284   1.399       .  A
C275        C276   1.402       .  A
C275       C1337   1.412   1_455  A
C276        C277   1.397       .  A
C276        H287   1.084       .  S
C277        C278   1.402       .  A
C277        H288   1.083       .  S
C278        C279   1.401       .  A
C278       C1336   1.412   1_455  A
C279       C1344   1.404   1_455  A
C279        H289   1.084       .  S
C280        C281   1.410       .  A
C280       C1343   1.406       .  A
C281        H290   1.084       .  S
C282        C283   1.405       .  A
C282        H291   1.084       .  S
C283       C1348   1.401       .  A
C284       C1347   1.401   1_455  A
C284        H292   1.084       .  S
C293        C294   1.399       .  A
C293        C298   1.403       .  A
C293        H309   1.083   1_545  S
C294        C295   1.403       .  A
C294        H310   1.083   1_545  S
C295        C305   1.404       .  A
C295        C296   1.411       .  A
C296        C302   1.412       .  A
C296        C297   1.416       .  A
C297        C299   1.413       .  A
C297        C298   1.412       .  A
C298        C306   1.403       .  A
C299        C308   1.411       .  A
C299        C300   1.405       .  A
C300        C301   1.404       .  A
C300        H311   1.083       .  S
C301        C302   1.406       .  A
C301        H312   1.083       .  S
C302        C303   1.411       .  A
C303        C304   1.411       .  A
C303        H313   1.084       .  S
C304        C305   1.407       .  A
C305        H314   1.084       .  S
C306        C307   1.404       .  A
C306        H315   1.084       .  S
C307        C308   1.408       .  A
C308        H316   1.084       .  S
C317        C318   1.403       .  A
C317        C322   1.406       .  A
C317        H333   1.083       .  S
C318        C319   1.405       .  A
C318        H334   1.084       .  S
C319        C329   1.407       .  A
C319        C320   1.412       .  A
C320        C326   1.413       .  A
C320        C321   1.411       .  A
C321        C323   1.409       .  A
C321        C322   1.413       .  A
C322        C330   1.411       .  A
C323        C332   1.395       .  A
C323        C324   1.402       .  A
C324        C325   1.394       .  A
C324        H335   1.084   1_545  S
C325        C326   1.401       .  A
C325        H336   1.084   1_545  S
C326        C327   1.397       .  A
C327        C328   1.401       .  A
C327        H337   1.085       .  S
C328        C329   1.407       .  A
C329        H338   1.084       .  S
C330        C331   1.410       .  A
C330        H339   1.084       .  S
C331        C332   1.405       .  A
C332        H340   1.084       .  S
C341        C342   1.399       .  A
C341        C346   1.403       .  A
C341        H357   1.083       .  S
C342        C343   1.403       .  A
C342        H358   1.083       .  S
C343        C353   1.404       .  A
C343        C344   1.412       .  A
C344        C345   1.414       .  A
C344        C882   1.411   1_545  A
C345        C347   1.411   1_545  A
C345        C346   1.411       .  A
C346        C354   1.403       .  A
C347        C356   1.407       .  A
C347        C880   1.405       .  A
C348        C349   1.401       .  A
C348        C879   1.405       .  A
C348        H359   1.084       .  S
C349        C350   1.404       .  A
C349        H360   1.084       .  S
C350        C351   1.407       .  A
C350        C876   1.412       .  A
C351        C884   1.407       .  A
C351        H361   1.084       .  S
C352        C353   1.405   1_565  A
C352        C883   1.410       .  A
C353        H362   1.084       .  S
C354        C355   1.406       .  A
C354        H363   1.084       .  S
C355        C356   1.411   1_545  A
C356        H896   1.084       .  S
H364        C888   1.084       .  S
C365        C898   1.397       .  A
C365        C902   1.403       .  A
C365        H381   1.084       .  S
C366        C367   1.403       .  A
C366        C897   1.398       .  A
C366        H914   1.084       .  S
C367        C377   1.404       .  A
C367        C368   1.412   1_565  A
C368        C374   1.410       .  A
C368        C369   1.416       .  A
C369        C371   1.414       .  A
C369        C370   1.409   1_545  A
C370        C378   1.399       .  A
C370        C897   1.403       .  A
C371        C380   1.413       .  A
C371        C372   1.405       .  A
C372        C373   1.404       .  A
C372        H383   1.083       .  S
C373        C374   1.406       .  A
C373        H384   1.083       .  S
C374        C375   1.410       .  A
C375        C376   1.412       .  A
C375        H385   1.084       .  S
C376        C377   1.408   1_545  A
C377        H386   1.084       .  S
C378        C379   1.409       .  A
C378        H919   1.084       .  S
C379        C380   1.408   1_565  A
C380        H388   1.081       .  S
H382        C898   1.084       .  S
H387        C910   1.084       .  S
C389        C390   1.399       .  A
C389        C394   1.403       .  A
C389        H405   1.084   1_545  S
C390        C391   1.404       .  A
C390        H406   1.084   1_545  S
C391        C401   1.402       .  A
C391        C392   1.410       .  A
C392        C398   1.413       .  A
C392        C393   1.414       .  A
C393        C395   1.412       .  A
C393        C394   1.413       .  A
C394        C402   1.404       .  A
C395        C404   1.406       .  A
C395        C396   1.404       .  A
C396        C397   1.402       .  A
C396        H407   1.084       .  S
C397        C398   1.405       .  A
C397        H408   1.083       .  S
C398        C399   1.410       .  A
C399        C400   1.410       .  A
C399        H409   1.084       .  S
C400        C401   1.409       .  A
C401        H410   1.084       .  S
C402        C403   1.403       .  A
C402        H411   1.084       .  S
C403        C404   1.405       .  A
C404        H412   1.084       .  S
C413        C414   1.400       .  A
C413        C418   1.403       .  A
C413        H429   1.083   1_545  S
C414        C415   1.404       .  A
C414        H962   1.084   1_545  S
C415        C425   1.405       .  A
C415        C416   1.411       .  A
C416        C422   1.412       .  A
C416        C417   1.416       .  A
C417        C419   1.412       .  A
C417        C418   1.412       .  A
C418        C426   1.405       .  A
C419        C428   1.408       .  A
C419        C420   1.405       .  A
C420        C421   1.402       .  A
C420        H431   1.083       .  S
C421        C422   1.405       .  A
C421        H432   1.084       .  S
C422        C423   1.408       .  A
C423        C424   1.410       .  A
C423        H433   1.084       .  S
C424        C425   1.408       .  A
C425        H434   1.084       .  S
C426        C427   1.405       .  A
C426        H435   1.084       .  S
C427        C428   1.407       .  A
C428        H436   1.084       .  S
H430        C946   1.083       .  S
C437        C438   1.401       .  A
C437        C442   1.404       .  A
C437        H453   1.084       .  S
C438        C439   1.405       .  A
C438        H454   1.083       .  S
C439        C449   1.406       .  A
C439       C1504   1.412       .  A
C440        C446   1.413   1_655  A
C440        C441   1.413       .  A
C440       C1503   1.412       .  A
C441        C443   1.411   1_655  A
C441       C1506   1.412       .  A
C442        C450   1.408       .  A
C442       C1505   1.412       .  A
C443        C452   1.401       .  A
C443        C444   1.403       .  A
C444        C445   1.398       .  A
C444        H455   1.084       .  S
C445        C446   1.403       .  A
C445        H456   1.083       .  S
C446        C447   1.404       .  A
C447        C448   1.401   1_455  A
C447        H457   1.085       .  S
C448       C1513   1.406       .  A
C449       C1512   1.406       .  A
C449        H458   1.084       .  S
C450       C1515   1.408       .  A
C450        H459   1.084       .  S
C451        C452   1.407   1_655  A
C451       C1514   1.408       .  A
C452        H460   1.084       .  S
C461        C462   1.403       .  A
C461        C466   1.405       .  A
C461        H477   1.083       .  S
C462        C463   1.405       .  A
C462        H478   1.083       .  S
C463        C473   1.410       .  A
C463        C464   1.412   1_455  A
C464        C465   1.419       .  A
C464       C1534   1.411       .  A
C465        C466   1.410   1_655  A
C465       C1531   1.410       .  A
C466        C474   1.410       .  A
C467        C476   1.407       .  A
C467        C468   1.405       .  A
C467       C1529   1.409       .  A
C468        C469   1.401       .  A
C468        H479   1.083       .  S
C469        C470   1.404       .  A
C469        H480   1.084       .  S
C470        C471   1.407       .  A
C470       C1528   1.412       .  A
C471       C1536   1.409       .  A
C471        H481   1.084       .  S
C472        C473   1.410       .  A
C472       C1535   1.410   1_455  A
C473        H482   1.084       .  S
C474        C475   1.414   1_455  A
C474        H483   1.084       .  S
C475       C1065   1.548       .  S
C475       C1540   1.417       .  A
C476       C1539   1.416       .  A
C476        H484   1.080       .  S
C485        C486   1.399       .  A
C485        C490   1.404       .  A
C485       H1033   1.084       .  S
C486        C487   1.403       .  A
C486       H1034   1.083       .  S
C487        C497   1.406       .  A
C487        C488   1.412   1_565  A
C488        C494   1.411       .  A
C488        C489   1.419       .  A
C489        C491   1.412       .  A
C489        C490   1.409   1_545  A
C490        C498   1.404       .  A
C491        C500   1.415       .  A
C491        C492   1.406       .  A
C492        C493   1.405       .  A
C492        H503   1.083       .  S
C493        C494   1.406       .  A
C493        H504   1.083       .  S
C494        C495   1.413       .  A
C495        C496   1.413       .  A
C495        H505   1.084       .  S
C496        C497   1.409   1_545  A
C497        H506   1.084       .  S
C498        C499   1.412       .  A
C498       H1039   1.082       .  S
C499        C500   1.413   1_565  A
C500        H508   1.083       .  S
H501       C1017   1.084       .  S
H502       C1018   1.083       .  S
H507       C1030   1.083       .  S
C509        C514   1.403       .  A
C509       C1042   1.398       .  A
C509       H1057   1.084       .  S
C510       C1041   1.399       .  A
C510       C1043   1.404       .  A
C510        H526   1.084       .  S
C511        C512   1.410   1_565  A
C511       C1042   1.403       .  A
C511       C1053   1.401       .  A
C512        C518   1.412       .  A
C512        C513   1.417       .  A
C513        C515   1.411       .  A
C513        C514   1.411   1_545  A
C514        C522   1.404       .  A
C515        C524   1.411       .  A
C515        C516   1.406       .  A
C516        C517   1.404       .  A
C516        H527   1.083       .  S
C517        C518   1.406       .  A
C517        H528   1.083       .  S
C518        C519   1.413       .  A
C519        C520   1.411   1_545  A
C519        H529   1.083       .  S
C520       C1053   1.409       .  A
C521       C1043   1.403       .  A
C521       C1052   1.411       .  A
C521        H530   1.083       .  S
C522        C523   1.409   1_565  A
C522        H531   1.084       .  S
C523        C524   1.411       .  A
C524        H532   1.084       .  S
H525       C1041   1.084       .  S
C533        C534   1.545       .  S
C533        C539   1.534       .  S
C533       C1601   1.540       .  S
C533       C2071   1.548       .  S
C534        H541   1.079       .  S
C535        C536   1.548       .  S
C535       C1052   1.500       .  S
C536       C1604   1.550       .  S
C536       C1602   1.552       .  S
C536        H542   1.107       .  S
C537       C1597   1.536   1_455  S
C537        H543   1.085       .  S
C538       C1600   1.552   1_455  S
C538       C1031   1.504       .  S
C539        H544   1.087       .  S
C539       C1072   1.364   1_565  D
C540       C1600   1.543       .  S
C540       C1071   1.369       .  D
C540        C980   1.489       .  S
O545        V553   1.915       .  S
O545        C555   1.267       .  A
O546        V553   1.916       .  S
O546        C556   1.268       .  A
O547        V553   1.915       .  S
O547        C557   1.268       .  A
O548        V553   1.911       .  S
O548        C558   1.268       .  A
O549        C558   1.264       .  A
O550        V554   1.898       .  S
O551        V554   1.908       .  S
O552        C555   1.269       .  A
C555        C956   1.498       .  S
C556       C1028   1.501       .  S
C557       C1055   1.492       .  S
C558        C932   1.487       .  S
O559        V567   1.918       .  S
O559        C569   1.268       .  A
O560        V567   1.918       .  S
O560        C570   1.269       .  A
O561        V567   1.910       .  S
O561        C571   1.267       .  A
O562        V567   1.908       .  S
O562        C572   1.267       .  A
O563        C572   1.263       .  A
O564        V568   1.906       .  S
O565        V568   1.898       .  S
O566        C569   1.265       .  A
C569        C863   1.490       .  S
C570        C887   1.493       .  S
C571        C908   1.484       .  S
C572        C836   1.480       .  S
N573        H605   1.038       .  S
N573        C577   1.353       .  A
N574        C581   1.350       .  A
N574        C582   1.352   1_554  A
N575        H606   1.033       .  S
N575        C579   1.354       .  A
N576        C583   1.353       .  A
N576        C584   1.354   1_554  A
C577        C585   1.388       .  A
C577        C593   1.418       .  A
C578        C594   1.418       .  A
C578        C586   1.388       .  A
C579        C587   1.387       .  A
C579        C596   1.421       .  A
C580        C595   1.419       .  A
C580        C588   1.387       .  A
C581        C593   1.416       .  A
C581        C589   1.386       .  A
C582        C596   1.419       .  A
C582        C590   1.387       .  A
C583        C591   1.387       .  A
C583        C594   1.418       .  A
C584        C592   1.386       .  A
C584        C595   1.417       .  A
C585        H597   1.082       .  S
C586        H598   1.082       .  S
C587        H599   1.082       .  S
C588        H600   1.082       .  S
C589        C590   1.372   1_554  A
C589        H601   1.082       .  S
C590        H602   1.082       .  S
C591        C592   1.374   1_554  A
C591        H603   1.082       .  S
C592        H604   1.082       .  S
C593        C791   1.481       .  S
C594        C815   1.483       .  S
C595        C743   1.492       .  S
C596        C764   1.488       .  S
O607        V615   1.897       .  S
O607       C1681   1.266   1_455  A
O608        V615   1.899       .  S
O608       C1682   1.264       .  A
O609        V615   1.908       .  S
O609       C1683   1.266       .  A
O610        V615   1.908       .  S
O610       C1684   1.267   1_455  A
O611        V616   1.900       .  S
O611        C620   1.265       .  A
O612        V616   1.898       .  S
O612        C619   1.265       .  A
O613        V616   1.905       .  S
O613        C618   1.266       .  A
O614        V616   1.907       .  S
O614        C617   1.265       .  A
V615       V1680   2.084   1_455  T
V616       V1679   2.086       .  T
C617       O1671   1.265       .  A
C617        C692   1.483       .  S
C618       O1672   1.265       .  A
C618        C812   1.484       .  S
C619       O1673   1.265       .  A
C619        C788   1.482       .  S
C620       O1674   1.266       .  A
C620        C719   1.485       .  S
C621        C622   1.544   1_655  S
C621        C627   1.539       .  S
C621       C1689   1.540       .  S
C621        C695   1.546       .  S
C622        H629   1.077       .  S
C623        C624   1.540   1_455  S
C623        C911   1.487       .  S
C624        C628   1.541       .  S
C624       C1690   1.542       .  S
C624        H630   1.110       .  S
C625       C1685   1.537       .  S
C625        H631   1.086       .  S
C626       C1688   1.546       .  S
C626        C884   1.488       .  S
C627        H632   1.086       .  S
C628        C716   1.480       .  S
O633        V641   1.910       .  S
O633       C1707   1.267       .  A
O634        V641   1.907       .  S
O634       C1708   1.266       .  A
O635        V641   1.906       .  S
O635       C1709   1.266       .  A
O636        V641   1.908       .  S
O636       C1710   1.267       .  A
O637        V642   1.914       .  S
O637        C646   1.270       .  A
O638        V642   1.910       .  S
O638        C645   1.267       .  A
O639        V642   1.899       .  S
O639        C644   1.264       .  A
O640        V642   1.897       .  S
O640        C643   1.263       .  A
V641       V1706   2.085       .  T
V642       V1705   2.085   1_455  T
C643       O1697   1.268   1_455  A
C643       C1004   1.482       .  S
C644       O1698   1.271   1_455  A
C644        C740   1.494       .  S
C645       O1699   1.266   1_455  A
C645        C767   1.489       .  S
C646       O1700   1.265   1_455  A
C646        C983   1.493       .  S
N647        H679   1.039       .  S
N647        C652   1.356   1_655  A
N647       C1715   1.356       .  A
N648        C655   1.353       .  A
N648        C656   1.355       .  A
N649        H680   1.035       .  S
N649        C654   1.355   1_655  A
N649       C1717   1.357       .  A
N650        C657   1.355       .  A
N650        C658   1.354       .  A
C651       N1711   1.354       .  A
C651        C659   1.389       .  A
C651        C667   1.417       .  A
C652        C668   1.416       .  A
C652        C660   1.386       .  A
C653       N1713   1.356       .  A
C653        C661   1.387       .  A
C653        C670   1.418       .  A
C654        C669   1.420       .  A
C654        C662   1.388       .  A
C655        C667   1.418       .  A
C655        C663   1.387       .  A
C656        C670   1.418       .  A
C656        C664   1.385       .  A
C657        C665   1.386       .  A
C657        C668   1.418       .  A
C658        C666   1.387       .  A
C658        C669   1.419       .  A
C659       C1724   1.372       .  A
C659        H671   1.082       .  S
C660       C1723   1.373   1_455  A
C660        H672   1.082       .  S
C661       C1726   1.373       .  A
C661        H673   1.082       .  S
C662       C1725   1.374   1_455  A
C662        H674   1.082       .  S
C663        C664   1.375       .  A
C663        H675   1.082       .  S
C664        H676   1.082       .  S
C665        C666   1.375       .  A
C665        H677   1.082       .  S
C666        H678   1.082       .  S
C667        C839   1.486       .  S
C668        C860   1.493       .  S
C669        C935   1.489       .  S
C670        C959   1.495       .  S
C681        C682   1.405       .  A
C681        C686   1.406       .  A
C681        H697   1.083       .  S
C682        C683   1.406       .  A
C682        H698   1.083       .  S
C683        C693   1.411       .  A
C683        C684   1.411       .  A
C684       C1754   1.411       .  A
C684        C685   1.413       .  A
C685       C1751   1.406       .  A
C685        C686   1.411       .  A
C686        C694   1.413       .  A
C687       C1749   1.407   1_455  A
C687        C696   1.398       .  A
C687        C688   1.404       .  A
C688        C689   1.394       .  A
C688        H699   1.084       .  S
C689        C690   1.401       .  A
C689        H700   1.084       .  S
C690       C1748   1.411   1_455  A
C690        C691   1.399       .  A
C691       C1756   1.406   1_455  A
C691        H701   1.084       .  S
C692       C1755   1.404       .  A
C692        C693   1.411       .  A
C693        H702   1.084       .  S
C694       C1759   1.415       .  A
C694        H703   1.084       .  S
C695       C1758   1.416       .  A
C695        C696   1.415   1_655  A
C696        H704   1.072       .  S
C705        C706   1.400       .  A
C705        C710   1.404       .  A
C705        H721   1.083       .  S
C706        C707   1.403       .  A
C706        H722   1.084       .  S
C707        C717   1.406       .  A
C707       C1772   1.413   1_455  A
C708       C1771   1.412       .  A
C708        C714   1.413       .  A
C708        C709   1.413       .  A
C709        C711   1.411       .  A
C709       C1774   1.412       .  A
C710       C1773   1.411   1_455  A
C710        C718   1.407       .  A
C711        C720   1.403       .  A
C711        C712   1.404       .  A
C712        C713   1.399       .  A
C712        H723   1.084       .  S
C713        C714   1.403       .  A
C713        H724   1.084       .  S
C714        C715   1.404       .  A
C715       C1780   1.403       .  A
C715        H725   1.085       .  S
C716       C1779   1.405       .  A
C716        C717   1.403   1_655  A
C717        H726   1.085       .  S
C718       C1783   1.410   1_455  A
C718        H727   1.084       .  S
C719       C1782   1.409       .  A
C719        C720   1.407       .  A
C720        H728   1.084       .  S
C729        C730   1.403       .  A
C729        C734   1.405       .  A
C729        H745   1.084       .  S
C730        C731   1.406       .  A
C730        H746   1.084       .  S
C731        C741   1.409       .  A
C731        C732   1.410       .  A
C732       C1802   1.413   1_455  A
C732        C733   1.418       .  A
C733       C1799   1.411   1_455  A
C733        C734   1.414       .  A
C734        C742   1.412       .  A
C735       C1797   1.412       .  A
C735        C744   1.409       .  A
C735        C736   1.405       .  A
C736        C737   1.403       .  A
C736        H747   1.083       .  S
C737        C738   1.405       .  A
C737        H748   1.084       .  S
C738       C1796   1.412       .  A
C738        C739   1.409       .  A
C739       C1804   1.411       .  A
C739        H749   1.084       .  S
C740       C1803   1.408   1_455  A
C740        C741   1.413       .  A
C741        H750   1.084       .  S
C742       C1807   1.408       .  A
C742        H751   1.084       .  S
C743       C1806   1.403       .  A
C743        C744   1.408       .  A
C744        H752   1.084       .  S
C753        C754   1.401       .  A
C753        C758   1.405       .  A
C753        H769   1.083       .  S
C754        C755   1.404       .  A
C754        H770   1.084       .  S
C755        C765   1.406       .  A
C755        C756   1.412       .  A
C756       C1826   1.413   1_455  A
C756        C757   1.415       .  A
C757       C1823   1.411   1_455  A
C757        C758   1.412       .  A
C758        C766   1.408       .  A
C759       C1821   1.412       .  A
C759        C768   1.406       .  A
C759        C760   1.404       .  A
C760        C761   1.400       .  A
C760        H771   1.084       .  S
C761        C762   1.404       .  A
C761        H772   1.084       .  S
C762       C1820   1.412       .  A
C762        C763   1.404       .  A
C763        C764   1.405       .  A
C763        H773   1.084       .  S
C764       C1829   1.404       .  A
C765       C1828   1.404       .  A
C765        H774   1.084       .  S
C766        C767   1.409       .  A
C766        H775   1.084       .  S
C767       C1832   1.409   1_455  A
C768       C1831   1.409       .  A
C768        H776   1.084       .  S
C777        C778   1.397       .  A
C777        C782   1.402       .  A
C777        H793   1.084       .  S
C778        C779   1.403       .  A
C778        H794   1.083       .  S
C779        C789   1.400       .  A
C779        C780   1.411       .  A
C780       C1850   1.412       .  A
C780        C781   1.411       .  A
C781       C1847   1.413       .  A
C781        C782   1.412       .  A
C782        C790   1.399       .  A
C783       C1845   1.413       .  A
C783        C792   1.407       .  A
C783        C784   1.404       .  A
C784        C785   1.402       .  A
C784        H795   1.084       .  S
C785        C786   1.405       .  A
C785        H796   1.083       .  S
C786       C1844   1.412       .  A
C786        C787   1.408       .  A
C787       C1852   1.410       .  A
C787        H797   1.084       .  S
C788       C1851   1.409       .  A
C788        C789   1.406       .  A
C789        H798   1.084       .  S
C790        C791   1.400       .  A
C790        H799   1.085       .  S
C791       C1856   1.405       .  A
C792       C1855   1.406       .  A
C792        H800   1.084       .  S
C801        C802   1.400       .  A
C801        C806   1.403       .  A
C801        H817   1.084       .  S
C802        C803   1.404       .  A
C802        H818   1.083       .  S
C803        C813   1.405       .  A
C803        C804   1.412       .  A
C804       C1874   1.411       .  A
C804        C805   1.413       .  A
C805       C1871   1.413       .  A
C805        C806   1.412       .  A
C806        C814   1.403       .  A
C807       C1869   1.413       .  A
C807        C816   1.406       .  A
C807        C808   1.404       .  A
C808        C809   1.401       .  A
C808        H819   1.084       .  S
C809        C810   1.405       .  A
C809        H820   1.084       .  S
C810       C1868   1.411       .  A
C810        C811   1.405       .  A
C811       C1876   1.410       .  A
C811        H821   1.084       .  S
C812       C1875   1.408       .  A
C812        C813   1.408       .  A
C813        H822   1.084       .  S
C814        C815   1.404       .  A
C814        H823   1.084       .  S
C815       C1880   1.403       .  A
C816       C1879   1.405       .  A
C816        H824   1.084       .  S
C825        C826   1.398       .  A
C825        C830   1.403       .  A
C825        H841   1.084       .  S
C826        C827   1.404       .  A
C826        H842   1.084       .  S
C827        C837   1.401       .  A
C827        C828   1.411       .  A
C828        C834   1.412       .  A
C828        C829   1.412       .  A
C829        C831   1.412       .  A
C829        C830   1.412       .  A
C830        C838   1.402       .  A
C831        C840   1.404       .  A
C831        C832   1.404       .  A
C832        C833   1.400       .  A
C832        H843   1.083       .  S
C833        C834   1.404       .  A
C833        H844   1.084       .  S
C834        C835   1.405       .  A
C835        C836   1.406       .  A
C835        H845   1.084       .  S
C836        C837   1.408       .  A
C837        H846   1.084       .  S
C838        C839   1.403       .  A
C838        H847   1.084       .  S
C839        C840   1.405       .  A
C840        H848   1.084       .  S
C849        C850   1.405       .  A
C849        C854   1.406       .  A
C849        H865   1.083       .  S
C850        C851   1.406       .  A
C850        H866   1.083       .  S
C851        C861   1.410       .  A
C851        C852   1.411       .  A
C852        C858   1.413       .  A
C852        C853   1.416       .  A
C853        C855   1.409       .  A
C853        C854   1.413       .  A
C854        C862   1.414       .  A
C855        C864   1.400       .  A
C855        C856   1.403       .  A
C856        C857   1.397       .  A
C856        H867   1.084       .  S
C857        C858   1.402       .  A
C857        H868   1.083       .  S
C858        C859   1.403       .  A
C859        C860   1.403       .  A
C859        H869   1.084       .  S
C860        C861   1.409       .  A
C861        H870   1.084       .  S
C862        C863   1.411       .  A
C862        H871   1.084       .  S
C863        C864   1.407       .  A
C864        H872   1.084       .  S
C873        C874   1.402       .  A
C873        C878   1.405       .  A
C873        H889   1.083       .  S
C874        C875   1.404       .  A
C874        H890   1.083       .  S
C875        C885   1.408       .  A
C875        C876   1.412       .  A
C876        C877   1.417       .  A
C877        C879   1.410       .  A
C877        C878   1.412       .  A
C878        C886   1.410       .  A
C879        C888   1.406       .  A
C880        C881   1.401       .  A
C880        H891   1.084       .  S
C881        C882   1.405       .  A
C881        H892   1.084       .  S
C882        C883   1.406       .  A
C883        H893   1.084       .  S
C884        C885   1.406       .  A
C885        H894   1.084       .  S
C886        C887   1.409       .  A
C886        H895   1.084       .  S
C887        C888   1.411       .  A
C897        H913   1.084       .  S
C898        C899   1.403       .  A
C899        C909   1.400       .  A
C899        C900   1.411       .  A
C900        C906   1.412       .  A
C900        C901   1.413       .  A
C901        C903   1.413       .  A
C901        C902   1.410       .  A
C902        C910   1.399       .  A
C903        C912   1.408       .  A
C903        C904   1.404       .  A
C904        C905   1.402       .  A
C904        H915   1.083       .  S
C905        C906   1.405       .  A
C905        H916   1.083       .  S
C906        C907   1.408       .  A
C907        C908   1.409       .  A
C907        H917   1.084       .  S
C908        C909   1.407       .  A
C909        H918   1.084       .  S
C910        C911   1.408       .  A
C911        C912   1.406       .  A
C912        H920   1.084       .  S
C921        C922   1.401       .  A
C921        C926   1.404       .  A
C921        H937   1.084       .  S
C922        C923   1.405       .  A
C922        H938   1.084       .  S
C923        C933   1.405       .  A
C923        C924   1.410       .  A
C924        C930   1.412       .  A
C924        C925   1.415       .  A
C925        C927   1.412       .  A
C925        C926   1.413       .  A
C926        C934   1.406       .  A
C927        C936   1.404       .  A
C927        C928   1.403       .  A
C928        C929   1.400       .  A
C928        H939   1.083       .  S
C929        C930   1.404       .  A
C929        H940   1.083       .  S
C930        C931   1.406       .  A
C931        C932   1.408       .  A
C931        H941   1.084       .  S
C932        C933   1.410       .  A
C933        H942   1.084       .  S
C934        C935   1.406       .  A
C934        H943   1.084       .  S
C935        C936   1.403       .  A
C936        H944   1.084       .  S
C945        C946   1.399       .  A
C945        C950   1.402       .  A
C945        H961   1.083       .  S
C946        C947   1.404       .  A
C947        C957   1.406       .  A
C947        C948   1.411       .  A
C948        C954   1.412       .  A
C948        C949   1.418       .  A
C949        C951   1.413       .  A
C949        C950   1.412       .  A
C950        C958   1.404       .  A
C951        C960   1.412       .  A
C951        C952   1.406       .  A
C952        C953   1.405       .  A
C952        H963   1.084       .  S
C953        C954   1.407       .  A
C953        H964   1.083       .  S
C954        C955   1.414       .  A
C955        C956   1.414       .  A
C955        H965   1.084       .  S
C956        C957   1.409       .  A
C957        H966   1.084       .  S
C958        C959   1.403       .  A
C958        H967   1.084       .  S
C959        C960   1.409       .  A
C960        H968   1.084       .  S
C969        C970   1.402       .  A
C969        C974   1.405       .  A
C969        H985   1.083       .  S
C970        C971   1.404       .  A
C970        H986   1.083       .  S
C971        C981   1.410       .  A
C971       C2036   1.414       .  A
C972       C2035   1.413       .  A
C972        C978   1.412   1_655  A
C972        C973   1.418   1_655  A
C973        C975   1.412       .  A
C973       C2038   1.412   1_455  A
C974       C2037   1.411       .  A
C974        C982   1.408       .  A
C975        C984   1.404       .  A
C975        C976   1.402       .  A
C976        C977   1.398       .  A
C976        H987   1.083       .  S
C977        C978   1.402       .  A
C977        H988   1.083       .  S
C978        C979   1.403       .  A
C979        C980   1.403   1_455  A
C979        H989   1.085       .  S
C980       C2045   1.410       .  A
C981       C2044   1.404       .  A
C981        H990   1.084       .  S
C982       C2047   1.409       .  A
C982        H991   1.084       .  S
C983       C2046   1.414   1_455  A
C983        C984   1.405       .  A
C984        H992   1.084       .  S
C993        C994   1.402       .  A
C993        C998   1.405       .  A
C993       H1009   1.084       .  S
C994        C995   1.405       .  A
C994       H1010   1.084       .  S
C995       C1005   1.406       .  A
C995        C996   1.410       .  A
C996       C2066   1.413   1_455  A
C996        C997   1.416       .  A
C997       C2063   1.408   1_455  A
C997        C998   1.410       .  A
C998       C1006   1.409       .  A
C999       C2061   1.409       .  A
C999       C1008   1.409       .  A
C999       C1000   1.406       .  A
C1000      C1001   1.401       .  A
C1000      H1011   1.084       .  S
C1001      C1002   1.404       .  A
C1001      H1012   1.083       .  S
C1002      C2060   1.412       .  A
C1002      C1003   1.409       .  A
C1003      C2068   1.409       .  A
C1003      H1013   1.084       .  S
C1004      C2067   1.404   1_455  A
C1004      C1005   1.410       .  A
C1005      H1014   1.084       .  S
C1006      C1007   1.414   1_455  A
C1006      H1015   1.084       .  S
C1007      C1597   1.541       .  S
C1007      C2072   1.414       .  A
C1008      C2071   1.417       .  A
C1008      H1016   1.076       .  S
C1017      C1018   1.401       .  A
C1017      C1022   1.404       .  A
C1018      C1019   1.404       .  A
C1019      C1029   1.410       .  A
C1019      C1020   1.412       .  A
C1020      C1026   1.411       .  A
C1020      C1021   1.420       .  A
C1021      C1023   1.413       .  A
C1021      C1022   1.410       .  A
C1022      C1030   1.406       .  A
C1023      C1032   1.414       .  A
C1023      C1024   1.405       .  A
C1024      C1025   1.404       .  A
C1024      H1035   1.083       .  S
C1025      C1026   1.406       .  A
C1025      H1036   1.083       .  S
C1026      C1027   1.413       .  A
C1027      C1028   1.413       .  A
C1027      H1037   1.084       .  S
C1028      C1029   1.411       .  A
C1029      H1038   1.084       .  S
C1030      C1031   1.412       .  A
C1031      C1032   1.411       .  A
C1032      H1040   1.083       .  S
C1041      C1046   1.404       .  A
C1042      H1058   1.084       .  S
C1043      C1044   1.409       .  A
C1044      C1050   1.413       .  A
C1044      C1045   1.417       .  A
C1045      C1047   1.411       .  A
C1045      C1046   1.412       .  A
C1046      C1054   1.405       .  A
C1047      C1056   1.410       .  A
C1047      C1048   1.405       .  A
C1048      C1049   1.403       .  A
C1048      H1059   1.083       .  S
C1049      C1050   1.405       .  A
C1049      H1060   1.083       .  S
C1050      C1051   1.413       .  A
C1051      C1052   1.409       .  A
C1051      H1061   1.084       .  S
C1053      H1062   1.083       .  S
C1054      C1055   1.410       .  A
C1054      H1063   1.084       .  S
C1055      C1056   1.410       .  A
C1056      H1064   1.084       .  S
C1065      C1066   1.543       .  S
C1065      C1071   1.537       .  S
C1066      H1073   1.082       .  S
C1066      C1599   1.370       .  D
C1067      C1068   1.548   1_665  S
C1067      C1598   1.370       .  D
C1067      C1584   1.500       .  S
C1068      H1074   1.108       .  S
C1069      H1075   1.083       .  S
C1069      C1602   1.378       .  D
C1070      C1601   1.375       .  D
C1070      C1563   1.505       .  S
C1071      H1076   1.086       .  S
C1072      C1512   1.477       .  S
O1077      V1085   1.914       .  S
O1077      C1087   1.267       .  A
O1078      V1085   1.920       .  S
O1078      C1088   1.269       .  A
O1079      V1085   1.913       .  S
O1079      C1089   1.268       .  A
O1080      V1085   1.908       .  S
O1080      C1090   1.267       .  A
O1081      V1618   1.893       .  S
O1081      C1090   1.263       .  A
O1082      V1086   1.894       .  S
O1082      C1621   1.264       .  A
O1083      V1086   1.903       .  S
O1083      C1620   1.266       .  A
O1084      V1618   1.894       .  S
O1084      C1087   1.264       .  A
V1085      V1618   2.085       .  T
V1086      O1613   1.895       .  S
V1086      O1616   1.907       .  S
V1086      V1617   2.084       .  T
C1087      C1488   1.486       .  S
C1088      O1615   1.266       .  A
C1088      C1560   1.496       .  S
C1089      O1614   1.264       .  A
C1089      C1587   1.488       .  S
C1090      C1464   1.480       .  S
O1091      V1099   1.911       .  S
O1091      C1101   1.266       .  A
O1092      V1099   1.908       .  S
O1092      C1102   1.267       .  A
O1093      V1099   1.904       .  S
O1093      C1103   1.266       .  A
O1094      V1099   1.902       .  S
O1094      C1104   1.265       .  A
O1095      V1632   1.896       .  S
O1095      C1104   1.264       .  A
O1096      V1100   1.905       .  S
O1096      C1635   1.267       .  A
O1097      V1100   1.894       .  S
O1097      C1634   1.263       .  A
O1098      V1632   1.896       .  S
O1098      C1101   1.265       .  A
V1099      V1632   2.086       .  T
V1100      O1627   1.903       .  S
V1100      O1630   1.888       .  S
V1100      V1631   2.085       .  T
C1101      C1395   1.485       .  S
C1102      O1629   1.264       .  A
C1102      C1419   1.487       .  S
C1103      O1628   1.265       .  A
C1103      C1440   1.481       .  S
C1104      C1368   1.480       .  S
N1105      H1137   1.025       .  S
N1105      C1642   1.357       .  A
N1105      C1109   1.360       .  A
N1106      C1113   1.353       .  A
N1106      C1114   1.350   1_554  A
N1107      H1138   1.029       .  S
N1107      C1644   1.357       .  A
N1107      C1111   1.354       .  A
N1108      C1115   1.351   1_455  A
N1108      C1116   1.351   1_554  A
C1109      C1117   1.387       .  A
C1109      C1125   1.426       .  A
C1110      N1637   1.354   1_545  A
C1110      C1126   1.417   1_455  A
C1110      C1118   1.388       .  A
C1111      C1119   1.388       .  A
C1111      C1128   1.419       .  A
C1112      N1639   1.355   1_545  A
C1112      C1127   1.421       .  A
C1112      C1120   1.388       .  A
C1113      C1125   1.418       .  A
C1113      C1121   1.387       .  A
C1114      C1128   1.416       .  A
C1114      C1122   1.388       .  A
C1115      C1123   1.386       .  A
C1115      C1126   1.414       .  A
C1116      C1124   1.388       .  A
C1116      C1127   1.417       .  A
C1117      C1650   1.376       .  A
C1117      H1129   1.082       .  S
C1118      C1649   1.372   1_545  A
C1118      H1130   1.082       .  S
C1119      C1652   1.374       .  A
C1119      H1131   1.082       .  S
C1120      C1651   1.374   1_545  A
C1120      H1132   1.082       .  S
C1121      C1122   1.370   1_554  A
C1121      H1133   1.082       .  S
C1122      H1134   1.082       .  S
C1123      C1124   1.372   1_654  A
C1123      H1135   1.082       .  S
C1124      H1136   1.082       .  S
C1125      C1323   1.496       .  S
C1126      C1347   1.481       .  S
C1127      C1275   1.483       .  S
C1128      C1296   1.478       .  S
O1139      V1147   1.906       .  S
O1140      V1147   1.906       .  S
O1141      V1147   1.900       .  S
O1142      V1147   1.905       .  S
O1143      V1148   1.911       .  S
O1143      C1152   1.267       .  A
O1144      V1148   1.908       .  S
O1144      C1151   1.267   1_655  A
O1145      V1148   1.891       .  S
O1145      C1150   1.262       .  A
O1146      V1148   1.896       .  S
O1146      C1149   1.263       .  A
C1149      C1224   1.477       .  S
C1150      C1344   1.478       .  S
C1151      C1320   1.489       .  S
C1152      C1251   1.485       .  S
C1153      C1154   1.540       .  S
C1153      C1159   1.533       .  S
C1153      C1227   1.533       .  S
C1154      H1161   1.083       .  S
C1154      C1687   1.367       .  D
C1155      C1156   1.543   1_565  S
C1155      C1686   1.362       .  D
C1155      C1443   1.494       .  S
C1156      C1160   1.540       .  S
C1156      H1162   1.110       .  S
C1157      H1163   1.086       .  S
C1157      C1690   1.368       .  D
C1158      C1689   1.373       .  D
C1158      C1416   1.492       .  S
C1159      H1164   1.087       .  S
C1159      C1692   1.362       .  D
C1160      C1691   1.368   1_545  D
C1160      C1248   1.484       .  S
O1165      V1173   1.908       .  S
O1166      V1173   1.900       .  S
O1167      V1173   1.902       .  S
O1168      V1173   1.903       .  S
O1169      V1174   1.895       .  S
O1169      C1178   1.264       .  A
O1170      V1174   1.889       .  S
O1170      C1177   1.263       .  A
O1171      V1174   1.899       .  S
O1171      C1176   1.265       .  A
O1172      V1174   1.903       .  S
O1172      C1175   1.266       .  A
C1175      C1536   1.489       .  S
C1176      C1272   1.480       .  S
C1177      C1299   1.483       .  S
C1178      C1515   1.487       .  S
N1179      H1211   1.036       .  S
N1179      C1184   1.358       .  A
N1180      C1187   1.352       .  A
N1180      C1188   1.352       .  A
N1181      H1212   1.037       .  S
N1181      C1186   1.354       .  A
N1182      C1189   1.353       .  A
N1182      C1190   1.353       .  A
C1183      C1191   1.387       .  A
C1183      C1199   1.417       .  A
C1184      C1200   1.421       .  A
C1184      C1192   1.386       .  A
C1185      C1193   1.387       .  A
C1185      C1202   1.417       .  A
C1186      C1201   1.418       .  A
C1186      C1194   1.388       .  A
C1187      C1199   1.413       .  A
C1187      C1195   1.386       .  A
C1188      C1202   1.415       .  A
C1188      C1196   1.387       .  A
C1189      C1197   1.387       .  A
C1189      C1200   1.416       .  A
C1190      C1198   1.386       .  A
C1190      C1201   1.415       .  A
C1191      H1203   1.082       .  S
C1192      H1204   1.082       .  S
C1193      H1205   1.082       .  S
C1194      H1206   1.082       .  S
C1195      C1196   1.372       .  A
C1195      H1207   1.082       .  S
C1196      H1208   1.082       .  S
C1197      C1198   1.372       .  A
C1197      H1209   1.083       .  S
C1198      H1210   1.082       .  S
C1199      C1371   1.485       .  S
C1200      C1392   1.493       .  S
C1201      C1467   1.487       .  S
C1202      C1491   1.485       .  S
C1213      C1214   1.400       .  A
C1213      C1218   1.404       .  A
C1213      H1229   1.083       .  S
C1214      C1215   1.404       .  A
C1214      H1230   1.084       .  S
C1215      C1225   1.403       .  A
C1215      C1216   1.410       .  A
C1216      C1217   1.412       .  A
C1217      C1218   1.410       .  A
C1218      C1226   1.405       .  A
C1219      C1228   1.403       .  A
C1219      C1220   1.405       .  A
C1220      C1221   1.399       .  A
C1220      H1231   1.084       .  S
C1221      C1222   1.403       .  A
C1221      H1232   1.084       .  S
C1222      C1223   1.404       .  A
C1223      H1233   1.084       .  S
C1224      C1225   1.407       .  A
C1225      H1234   1.084       .  S
C1226      H1235   1.084       .  S
C1227      C1228   1.414       .  A
C1228      H1236   1.080       .  S
C1237      C1238   1.402       .  A
C1237      C1242   1.405       .  A
C1237      H1253   1.083       .  S
C1238      C1239   1.404       .  A
C1238      H1254   1.084       .  S
C1239      C1249   1.409       .  A
C1240      C1246   1.412       .  A
C1240      C1241   1.414       .  A
C1241      C1243   1.412       .  A
C1242      C1250   1.409       .  A
C1243      C1252   1.407       .  A
C1243      C1244   1.404       .  A
C1244      C1245   1.401       .  A
C1244      H1255   1.083       .  S
C1245      C1246   1.404       .  A
C1245      H1256   1.084       .  S
C1246      C1247   1.405       .  A
C1247      H1257   1.084       .  S
C1248      C1249   1.406       .  A
C1249      H1258   1.084       .  S
C1250      H1259   1.084       .  S
C1251      C1252   1.408       .  A
C1252      H1260   1.084       .  S
C1261      C1262   1.398       .  A
C1261      C1266   1.402       .  A
C1261      H1277   1.084       .  S
C1262      C1263   1.403       .  A
C1262      H1278   1.084       .  S
C1263      C1273   1.401       .  A
C1263      C1264   1.411       .  A
C1264      C1265   1.410       .  A
C1265      C1266   1.413       .  A
C1266      C1274   1.401       .  A
C1267      C1276   1.402       .  A
C1267      C1268   1.403       .  A
C1268      C1269   1.399       .  A
C1268      H1279   1.084       .  S
C1269      C1270   1.404       .  A
C1269      H1280   1.084       .  S
C1270      C1271   1.403       .  A
C1271      H1281   1.084       .  S
C1272      C1273   1.407       .  A
C1273      H1282   1.084       .  S
C1274      H1283   1.084       .  S
C1275      C1276   1.403   1_455  A
C1276      H1284   1.084       .  S
C1285      C1286   1.398       .  A
C1285      C1290   1.404       .  A
C1285      H1301   1.084       .  S
C1286      C1287   1.403       .  A
C1286      H1302   1.083       .  S
C1287      C1297   1.404       .  A
C1287      C1288   1.414       .  A
C1288      C1289   1.412       .  A
C1289      C1290   1.409       .  A
C1290      C1298   1.399       .  A
C1291      C1300   1.403       .  A
C1291      C1292   1.403       .  A
C1292      C1293   1.399       .  A
C1292      H1303   1.084       .  S
C1293      C1294   1.403       .  A
C1293      H1304   1.084       .  S
C1294      C1295   1.400       .  A
C1295      C1296   1.403   1_655  A
C1295      H1305   1.084       .  S
C1297      H1306   1.084       .  S
C1298      C1299   1.408       .  A
C1298      H1307   1.084       .  S
C1300      H1308   1.084       .  S
C1309      C1310   1.400       .  A
C1309      C1314   1.404       .  A
C1309      H1325   1.083       .  S
C1310      C1311   1.404       .  A
C1310      H1326   1.084       .  S
C1311      C1321   1.406       .  A
C1311      C1312   1.411   1_655  A
C1312      C1313   1.416       .  A
C1313      C1314   1.412   1_455  A
C1314      C1322   1.406       .  A
C1315      C1324   1.406       .  A
C1315      C1316   1.403       .  A
C1316      C1317   1.400       .  A
C1316      H1327   1.084       .  S
C1317      C1318   1.404       .  A
C1317      H1328   1.084       .  S
C1318      C1319   1.405       .  A
C1319      H1329   1.084       .  S
C1320      C1321   1.408   1_455  A
C1321      H1330   1.084       .  S
C1322      C1323   1.407   1_655  A
C1322      H1331   1.084       .  S
C1324      H1332   1.084       .  S
C1333      C1334   1.400       .  A
C1333      C1338   1.404       .  A
C1333      H1349   1.084       .  S
C1334      C1335   1.405       .  A
C1334      H1350   1.084       .  S
C1335      C1345   1.403       .  A
C1335      C1336   1.411       .  A
C1336      C1337   1.411       .  A
C1337      C1338   1.413       .  A
C1338      C1346   1.405       .  A
C1339      C1348   1.399       .  A
C1339      C1340   1.402       .  A
C1340      C1341   1.397       .  A
C1340      H1351   1.084       .  S
C1341      C1342   1.403       .  A
C1341      H1352   1.083       .  S
C1342      C1343   1.402       .  A
C1343      H1353   1.084       .  S
C1344      C1345   1.409       .  A
C1345      H1354   1.084       .  S
C1346      C1347   1.404       .  A
C1346      H1355   1.084       .  S
C1348      H1356   1.085       .  S
C1357      C1358   1.398       .  A
C1357      C1362   1.403       .  A
C1357      H1373   1.084   1_545  S
C1358      C1359   1.403       .  A
C1358      H1374   1.084   1_545  S
C1359      C1369   1.402       .  A
C1359      C1360   1.411       .  A
C1360      C1366   1.411       .  A
C1360      C1361   1.412       .  A
C1361      C1363   1.413       .  A
C1361      C1362   1.412       .  A
C1362      C1370   1.400       .  A
C1363      C1372   1.406       .  A
C1363      C1364   1.404       .  A
C1364      C1365   1.400       .  A
C1364      H1375   1.083       .  S
C1365      C1366   1.404       .  A
C1365      H1376   1.084       .  S
C1366      C1367   1.404       .  A
C1367      C1368   1.407       .  A
C1367      H1377   1.084       .  S
C1368      C1369   1.407       .  A
C1369      H1378   1.084       .  S
C1370      C1371   1.403       .  A
C1370      H1379   1.084       .  S
C1371      C1372   1.405       .  A
C1372      H1380   1.084       .  S
C1381      C1382   1.404       .  A
C1381      C1386   1.406       .  A
C1381      H1397   1.083       .  S
C1382      C1383   1.406       .  A
C1382      H1398   1.083       .  S
C1383      C1393   1.410       .  A
C1383      C1384   1.412       .  A
C1384      C1390   1.412       .  A
C1384      C1385   1.414       .  A
C1385      C1387   1.410       .  A
C1385      C1386   1.413       .  A
C1386      C1394   1.411       .  A
C1387      C1396   1.399       .  A
C1387      C1388   1.402       .  A
C1388      C1389   1.397       .  A
C1388      H1399   1.084   1_545  S
C1389      C1390   1.402       .  A
C1389      H1400   1.083       .  S
C1390      C1391   1.401       .  A
C1391      C1392   1.404       .  A
C1391      H1401   1.085       .  S
C1392      C1393   1.408       .  A
C1393      H1402   1.084       .  S
C1394      C1395   1.410       .  A
C1394      H1403   1.084       .  S
C1395      C1396   1.406       .  A
C1396      H1404   1.084       .  S
C1405      C1406   1.400       .  A
C1405      C1410   1.404       .  A
C1405      H1421   1.083       .  S
C1406      C1407   1.404       .  A
C1406      H1422   1.083       .  S
C1407      C1417   1.405       .  A
C1407      C1408   1.411       .  A
C1408      C1946   1.412   1_545  A
C1408      C1409   1.415       .  A
C1409      C1411   1.411   1_545  A
C1409      C1410   1.412       .  A
C1410      C1418   1.405       .  A
C1411      C1420   1.406       .  A
C1411      C1944   1.404       .  A
C1412      C1943   1.405       .  A
C1412      C1413   1.401       .  A
C1412      H1423   1.084       .  S
C1413      C1414   1.404       .  A
C1413      H1424   1.084       .  S
C1414      C1940   1.412       .  A
C1414      C1415   1.406       .  A
C1415      C1948   1.407       .  A
C1415      H1425   1.084       .  S
C1416      C1947   1.409       .  A
C1416      C1417   1.407   1_565  A
C1417      H1426   1.084       .  S
C1418      C1419   1.408       .  A
C1418      H1427   1.084       .  S
C1419      C1420   1.410   1_545  A
C1420      H1960   1.084       .  S
H1428      C1952   1.084       .  S
C1429      C1962   1.396       .  A
C1429      C1966   1.403       .  A
C1429      H1445   1.084       .  S
C1430      C1961   1.397       .  A
C1430      C1431   1.403       .  A
C1430      H1978   1.084       .  S
C1431      C1441   1.402       .  A
C1431      C1432   1.412   1_565  A
C1432      C1438   1.411       .  A
C1432      C1433   1.412       .  A
C1433      C1435   1.413       .  A
C1433      C1434   1.408   1_545  A
C1434      C1961   1.404       .  A
C1434      C1442   1.398       .  A
C1435      C1444   1.408       .  A
C1435      C1436   1.404       .  A
C1436      C1437   1.401       .  A
C1436      H1447   1.083       .  S
C1437      C1438   1.404       .  A
C1437      H1448   1.083       .  S
C1438      C1439   1.405       .  A
C1439      C1440   1.408       .  A
C1439      H1449   1.084       .  S
C1440      C1441   1.407   1_545  A
C1441      H1450   1.084       .  S
C1442      C1443   1.412       .  A
C1442      H1983   1.083       .  S
C1443      C1444   1.406   1_565  A
C1444      H1452   1.083       .  S
H1446      C1962   1.084       .  S
H1451      C1974   1.084       .  S
C1453      C1454   1.399       .  A
C1453      C1458   1.403       .  A
C1453      H1469   1.084       .  S
C1454      C1455   1.404       .  A
C1454      H1470   1.084   1_545  S
C1455      C1465   1.402       .  A
C1455      C1456   1.410       .  A
C1456      C1462   1.413       .  A
C1456      C1457   1.412       .  A
C1457      C1459   1.412       .  A
C1457      C1458   1.413       .  A
C1458      C1466   1.404       .  A
C1459      C1468   1.402       .  A
C1459      C1460   1.403       .  A
C1460      C1461   1.399       .  A
C1460      H1471   1.083       .  S
C1461      C1462   1.403       .  A
C1461      H1472   1.083       .  S
C1462      C1463   1.405       .  A
C1463      C1464   1.406       .  A
C1463      H1473   1.084       .  S
C1464      C1465   1.408       .  A
C1465      H1474   1.084       .  S
C1466      C1467   1.405       .  A
C1466      H1475   1.084       .  S
C1467      C1468   1.404       .  A
C1468      H1476   1.084       .  S
C1477      C1478   1.398       .  A
C1477      C1482   1.403       .  A
C1477      H1493   1.084   1_545  S
C1478      C1479   1.404       .  A
C1478      H2026   1.084   1_545  S
C1479      C1489   1.400       .  A
C1479      C1480   1.410       .  A
C1480      C1486   1.413       .  A
C1480      C1481   1.413       .  A
C1481      C1483   1.412       .  A
C1481      C1482   1.413       .  A
C1482      C1490   1.403       .  A
C1483      C1492   1.405       .  A
C1483      C1484   1.404       .  A
C1484      C1485   1.401       .  A
C1484      H1495   1.084       .  S
C1485      C1486   1.405       .  A
C1485      H1496   1.083       .  S
C1486      C1487   1.409       .  A
C1487      C1488   1.409       .  A
C1487      H1497   1.084       .  S
C1488      C1489   1.408       .  A
C1489      H1498   1.084       .  S
C1490      C1491   1.403       .  A
C1490      H1499   1.084       .  S
C1491      C1492   1.404       .  A
C1492      H1500   1.084       .  S
H1494      C2010   1.083       .  S
C1501      C1502   1.401       .  A
C1501      C1506   1.404       .  A
C1501      H1517   1.084       .  S
C1502      C1503   1.405       .  A
C1502      H1518   1.083       .  S
C1503      C1513   1.405       .  A
C1504      C1510   1.413       .  A
C1504      C1505   1.414       .  A
C1505      C1507   1.410       .  A
C1506      C1514   1.405       .  A
C1507      C1516   1.403       .  A
C1507      C1508   1.404       .  A
C1508      C1509   1.399       .  A
C1508      H1519   1.083       .  S
C1509      C1510   1.403       .  A
C1509      H1520   1.084       .  S
C1510      C1511   1.405       .  A
C1511      C1512   1.401       .  A
C1511      H1521   1.085       .  S
C1513      H1522   1.084       .  S
C1514      H1523   1.084       .  S
C1515      C1516   1.409       .  A
C1516      H1524   1.084       .  S
C1525      C1526   1.401       .  A
C1525      C1530   1.404       .  A
C1525      H1541   1.083       .  S
C1526      C1527   1.404       .  A
C1526      H1542   1.084       .  S
C1527      C1537   1.406       .  A
C1527      C1528   1.411       .  A
C1528      C1529   1.417       .  A
C1529      C1530   1.410       .  A
C1530      C1538   1.408       .  A
C1531      C1540   1.410       .  A
C1531      C1532   1.406       .  A
C1532      C1533   1.402       .  A
C1532      H1543   1.083       .  S
C1533      C1534   1.404       .  A
C1533      H1544   1.084       .  S
C1534      C1535   1.408       .  A
C1535      H1545   1.084       .  S
C1536      C1537   1.409       .  A
C1537      H1546   1.084       .  S
C1538      C1539   1.413       .  A
C1538      H1547   1.083       .  S
C1540      H1548   1.078       .  S
C1549      C1550   1.399       .  A
C1549      C1554   1.404       .  A
C1549      H2097   1.084       .  S
C1550      C1551   1.403       .  A
C1550      H2098   1.084       .  S
C1551      C1561   1.405       .  A
C1551      C1552   1.411   1_565  A
C1552      C1558   1.412       .  A
C1552      C1553   1.419       .  A
C1553      C1555   1.412       .  A
C1553      C1554   1.410   1_545  A
C1554      C1562   1.404       .  A
C1555      C1564   1.416       .  A
C1555      C1556   1.407       .  A
C1556      C1557   1.406       .  A
C1556      H1567   1.083       .  S
C1557      C1558   1.406       .  A
C1557      H1568   1.083       .  S
C1558      C1559   1.414       .  A
C1559      C1560   1.412       .  A
C1559      H1569   1.084       .  S
C1560      C1561   1.409   1_545  A
C1561      H1570   1.084       .  S
C1562      C1563   1.410       .  A
C1562      H2103   1.083       .  S
C1563      C1564   1.413   1_565  A
C1564      H1572   1.083       .  S
H1565      C2081   1.084       .  S
H1566      C2082   1.084       .  S
H1571      C2094   1.081       .  S
C1573      C2106   1.398       .  A
C1573      C1578   1.403       .  A
C1573      H2121   1.084       .  S
C1574      C2105   1.397       .  A
C1574      C2107   1.403       .  A
C1574      H1590   1.084       .  S
C1575      C2106   1.404       .  A
C1575      C2117   1.402       .  A
C1575      C1576   1.409   1_565  A
C1576      C1582   1.412       .  A
C1576      C1577   1.415       .  A
C1577      C1579   1.412       .  A
C1577      C1578   1.411   1_545  A
C1578      C1586   1.403       .  A
C1579      C1588   1.409       .  A
C1579      C1580   1.405       .  A
C1580      C1581   1.403       .  A
C1580      H1591   1.083       .  S
C1581      C1582   1.405       .  A
C1581      H1592   1.083       .  S
C1582      C1583   1.411       .  A
C1583      C1584   1.410   1_545  A
C1583      H1593   1.083       .  S
C1584      C2117   1.411       .  A
C1585      C2107   1.401       .  A
C1585      C2116   1.407       .  A
C1585      H1594   1.084       .  S
C1586      C1587   1.408   1_565  A
C1586      H1595   1.084       .  S
C1587      C1588   1.409       .  A
C1588      H1596   1.084       .  S
H1589      C2105   1.084       .  S
C1597      C1598   1.544       .  S
C1597      C1603   1.532       .  S
C1598      H1605   1.078       .  S
C1599      C1600   1.543       .  S
C1599      C2116   1.491       .  S
C1600      H1606   1.110       .  S
C1601      H1607   1.085       .  S
C1602      C2095   1.508       .  S
C1603      H1608   1.087       .  S
C1604      C2044   1.489       .  S
O1609      V1617   1.913       .  S
O1609      C1619   1.268       .  A
O1610      V1617   1.912       .  S
O1610      C1620   1.267       .  A
O1611      V1617   1.915       .  S
O1611      C1621   1.268       .  A
O1612      V1617   1.910       .  S
O1612      C1622   1.267       .  A
O1613      C1622   1.264       .  A
O1614      V1618   1.895       .  S
O1615      V1618   1.902       .  S
O1616      C1619   1.267       .  A
C1619      C2020   1.494       .  S
C1620      C2092   1.490       .  S
C1621      C2119   1.488       .  S
C1622      C1996   1.485       .  S
O1623      V1631   1.910       .  S
O1623      C1633   1.267       .  A
O1624      V1631   1.910       .  S
O1624      C1634   1.268       .  A
O1625      V1631   1.902       .  S
O1625      C1635   1.264       .  A
O1626      V1631   1.903       .  S
O1626      C1636   1.265       .  A
O1627      C1636   1.266       .  A
O1628      V1632   1.899       .  S
O1629      V1632   1.899       .  S
O1630      C1633   1.262       .  A
C1633      C1927   1.480       .  S
C1634      C1951   1.482       .  S
C1635      C1972   1.486       .  S
C1636      C1900   1.485       .  S
N1637      H1669   1.037   1_455  S
N1637      C1641   1.356       .  A
N1638      C1645   1.352       .  A
N1638      C1646   1.352   1_554  A
N1639      H1670   1.031       .  S
N1639      C1643   1.355       .  A
N1640      C1647   1.353       .  A
N1640      C1648   1.356   1_554  A
C1641      C1649   1.387       .  A
C1641      C1657   1.416       .  A
C1642      C1658   1.427       .  A
C1642      C1650   1.389       .  A
C1643      C1651   1.388       .  A
C1643      C1660   1.422       .  A
C1644      C1659   1.420       .  A
C1644      C1652   1.388       .  A
C1645      C1657   1.415       .  A
C1645      C1653   1.386       .  A
C1646      C1660   1.419       .  A
C1646      C1654   1.387       .  A
C1647      C1655   1.389       .  A
C1647      C1658   1.424       .  A
C1648      C1656   1.385       .  A
C1648      C1659   1.421       .  A
C1649      H1661   1.082       .  S
C1650      H1662   1.082       .  S
C1651      H1663   1.082       .  S
C1652      H1664   1.083       .  S
C1653      C1654   1.374   1_554  A
C1653      H1665   1.082   1_455  S
C1654      H1666   1.082       .  S
C1655      C1656   1.375   1_554  A
C1655      H1667   1.082       .  S
C1656      H1668   1.082       .  S
C1657      C1855   1.486       .  S
C1658      C1879   1.491       .  S
C1659      C1807   1.495       .  S
C1660      C1828   1.488       .  S
O1671      V1679   1.893       .  S
O1672      V1679   1.900       .  S
O1673      V1679   1.905       .  S
O1674      V1679   1.906       .  S
O1675      V1680   1.911       .  S
O1675      C1684   1.267       .  A
O1676      V1680   1.903       .  S
O1676      C1683   1.266   1_655  A
O1677      V1680   1.912       .  S
O1677      C1682   1.268   1_655  A
O1678      V1680   1.917       .  S
O1678      C1681   1.267       .  A
C1681      C1756   1.491       .  S
C1682      C1876   1.488       .  S
C1683      C1852   1.487       .  S
C1684      C1783   1.494       .  S
C1685      C1686   1.541       .  S
C1685      C1691   1.536       .  S
C1685      C1759   1.539       .  S
C1686      H1693   1.076       .  S
C1687      C1688   1.542       .  S
C1687      C1975   1.490       .  S
C1688      C1692   1.537       .  S
C1688      H1694   1.111       .  S
C1689      H1695   1.086       .  S
C1690      C1948   1.480       .  S
C1691      H1696   1.086       .  S
C1692      C1780   1.475       .  S
O1697      V1705   1.915       .  S
O1698      V1705   1.920       .  S
O1699      V1705   1.904       .  S
O1700      V1705   1.910       .  S
O1701      V1706   1.913       .  S
O1701      C1710   1.268       .  A
O1702      V1706   1.903       .  S
O1702      C1709   1.266       .  A
O1703      V1706   1.906       .  S
O1703      C1708   1.267       .  A
O1704      V1706   1.915       .  S
O1704      C1707   1.268       .  A
C1707      C2068   1.493       .  S
C1708      C1804   1.490       .  S
C1709      C1831   1.486       .  S
C1710      C2047   1.493       .  S
N1711      H1743   1.038       .  S
N1711      C1716   1.355       .  A
N1712      C1719   1.352       .  A
N1712      C1720   1.354       .  A
N1713      H1744   1.037       .  S
N1713      C1718   1.354       .  A
N1714      C1721   1.352       .  A
N1714      C1722   1.352       .  A
C1715      C1723   1.388       .  A
C1715      C1731   1.418       .  A
C1716      C1732   1.415       .  A
C1716      C1724   1.387       .  A
C1717      C1725   1.388       .  A
C1717      C1734   1.421       .  A
C1718      C1733   1.418       .  A
C1718      C1726   1.388       .  A
C1719      C1731   1.416       .  A
C1719      C1727   1.386       .  A
C1720      C1734   1.418       .  A
C1720      C1728   1.386       .  A
C1721      C1729   1.386       .  A
C1721      C1732   1.414       .  A
C1722      C1730   1.386       .  A
C1722      C1733   1.415       .  A
C1723      H1735   1.082       .  S
C1724      H1736   1.082       .  S
C1725      H1737   1.082       .  S
C1726      H1738   1.082       .  S
C1727      C1728   1.376       .  A
C1727      H1739   1.082       .  S
C1728      H1740   1.082       .  S
C1729      C1730   1.375       .  A
C1729      H1741   1.083       .  S
C1730      H1742   1.082       .  S
C1731      C1903   1.488       .  S
C1732      C1924   1.486       .  S
C1733      C1999   1.485       .  S
C1734      C2023   1.494       .  S
C1745      C1746   1.407       .  A
C1745      C1750   1.407       .  A
C1745      H1761   1.083       .  S
C1746      C1747   1.407       .  A
C1746      H1762   1.083       .  S
C1747      C1757   1.415       .  A
C1747      C1748   1.411       .  A
C1748      C1749   1.416       .  A
C1749      C1750   1.410       .  A
C1750      C1758   1.415       .  A
C1751      C1760   1.395       .  A
C1751      C1752   1.403       .  A
C1752      C1753   1.393       .  A
C1752      H1763   1.084       .  S
C1753      C1754   1.400       .  A
C1753      H1764   1.084       .  S
C1754      C1755   1.396       .  A
C1755      H1765   1.084       .  S
C1756      C1757   1.413       .  A
C1757      H1766   1.084       .  S
C1758      H1767   1.084       .  S
C1759      C1760   1.413       .  A
C1760      H1768   1.075       .  S
C1769      C1770   1.401       .  A
C1769      C1774   1.405       .  A
C1769      H1785   1.083       .  S
C1770      C1771   1.404       .  A
C1770      H1786   1.084       .  S
C1771      C1781   1.405       .  A
C1772      C1778   1.413       .  A
C1772      C1773   1.417       .  A
C1773      C1775   1.412       .  A
C1774      C1782   1.407       .  A
C1775      C1784   1.410       .  A
C1775      C1776   1.405       .  A
C1776      C1777   1.402       .  A
C1776      H1787   1.083       .  S
C1777      C1778   1.404       .  A
C1777      H1788   1.084       .  S
C1778      C1779   1.408       .  A
C1779      H1789   1.084       .  S
C1780      C1781   1.403       .  A
C1781      H1790   1.084       .  S
C1782      H1791   1.084       .  S
C1783      C1784   1.411       .  A
C1784      H1792   1.084       .  S
C1793      C1794   1.399       .  A
C1793      C1798   1.403       .  A
C1793      H1809   1.083       .  S
C1794      C1795   1.404       .  A
C1794      H1810   1.083       .  S
C1795      C1805   1.405       .  A
C1795      C1796   1.411       .  A
C1796      C1797   1.416       .  A
C1797      C1798   1.413       .  A
C1798      C1806   1.405       .  A
C1799      C1808   1.404       .  A
C1799      C1800   1.403       .  A
C1800      C1801   1.400       .  A
C1800      H1811   1.083       .  S
C1801      C1802   1.403       .  A
C1801      H1812   1.083       .  S
C1802      C1803   1.409       .  A
C1803      H1813   1.084       .  S
C1804      C1805   1.408       .  A
C1805      H1814   1.084       .  S
C1806      H1815   1.084       .  S
C1807      C1808   1.404   1_455  A
C1808      H1816   1.084       .  S
C1817      C1818   1.400       .  A
C1817      C1822   1.404       .  A
C1817      H1833   1.083       .  S
C1818      C1819   1.403       .  A
C1818      H1834   1.083       .  S
C1819      C1829   1.404       .  A
C1819      C1820   1.413       .  A
C1820      C1821   1.414       .  A
C1821      C1822   1.411       .  A
C1822      C1830   1.404       .  A
C1823      C1832   1.405       .  A
C1823      C1824   1.404       .  A
C1824      C1825   1.400       .  A
C1824      H1835   1.083       .  S
C1825      C1826   1.403       .  A
C1825      H1836   1.084       .  S
C1826      C1827   1.405       .  A
C1827      C1828   1.404   1_655  A
C1827      H1837   1.084       .  S
C1829      H1838   1.084       .  S
C1830      C1831   1.408       .  A
C1830      H1839   1.084       .  S
C1832      H1840   1.084       .  S
C1841      C1842   1.398       .  A
C1841      C1846   1.402       .  A
C1841      H1857   1.084       .  S
C1842      C1843   1.403       .  A
C1842      H1858   1.083       .  S
C1843      C1853   1.403       .  A
C1843      C1844   1.411   1_655  A
C1844      C1845   1.414       .  A
C1845      C1846   1.412   1_455  A
C1846      C1854   1.402       .  A
C1847      C1856   1.405       .  A
C1847      C1848   1.404       .  A
C1848      C1849   1.401       .  A
C1848      H1859   1.084       .  S
C1849      C1850   1.405       .  A
C1849      H1860   1.083       .  S
C1850      C1851   1.406       .  A
C1851      H1861   1.084       .  S
C1852      C1853   1.407   1_455  A
C1853      H1862   1.084       .  S
C1854      C1855   1.402   1_655  A
C1854      H1863   1.084       .  S
C1856      H1864   1.084       .  S
C1865      C1866   1.401       .  A
C1865      C1870   1.404       .  A
C1865      H1881   1.083       .  S
C1866      C1867   1.404       .  A
C1866      H1882   1.083       .  S
C1867      C1877   1.407       .  A
C1867      C1868   1.412   1_655  A
C1868      C1869   1.415       .  A
C1869      C1870   1.412   1_455  A
C1870      C1878   1.405       .  A
C1871      C1880   1.404       .  A
C1871      C1872   1.403       .  A
C1872      C1873   1.399       .  A
C1872      H1883   1.084       .  S
C1873      C1874   1.404       .  A
C1873      H1884   1.083       .  S
C1874      C1875   1.403       .  A
C1875      H1885   1.084       .  S
C1876      C1877   1.408   1_455  A
C1877      H1886   1.084       .  S
C1878      C1879   1.405   1_655  A
C1878      H1887   1.084       .  S
C1880      H1888   1.084       .  S
C1889      C1890   1.398       .  A
C1889      C1894   1.402       .  A
C1889      H1905   1.083       .  S
C1890      C1891   1.403       .  A
C1890      H1906   1.084       .  S
C1891      C1901   1.402       .  A
C1891      C1892   1.411       .  A
C1892      C1898   1.411       .  A
C1892      C1893   1.414       .  A
C1893      C1895   1.413       .  A
C1893      C1894   1.412       .  A
C1894      C1902   1.401       .  A
C1895      C1904   1.408       .  A
C1895      C1896   1.405       .  A
C1896      C1897   1.402       .  A
C1896      H1907   1.083       .  S
C1897      C1898   1.405       .  A
C1897      H1908   1.084       .  S
C1898      C1899   1.407       .  A
C1899      C1900   1.410       .  A
C1899      H1909   1.084       .  S
C1900      C1901   1.406       .  A
C1901      H1910   1.084       .  S
C1902      C1903   1.403       .  A
C1902      H1911   1.084       .  S
C1903      C1904   1.406       .  A
C1904      H1912   1.084       .  S
C1913      C1914   1.401       .  A
C1913      C1918   1.404       .  A
C1913      H1929   1.084       .  S
C1914      C1915   1.404       .  A
C1914      H1930   1.083       .  S
C1915      C1925   1.406       .  A
C1915      C1916   1.412       .  A
C1916      C1922   1.412       .  A
C1916      C1917   1.412       .  A
C1917      C1919   1.410       .  A
C1917      C1918   1.412       .  A
C1918      C1926   1.406       .  A
C1919      C1928   1.399       .  A
C1919      C1920   1.403       .  A
C1920      C1921   1.397       .  A
C1920      H1931   1.084       .  S
C1921      C1922   1.402       .  A
C1921      H1932   1.084       .  S
C1922      C1923   1.401       .  A
C1923      C1924   1.403       .  A
C1923      H1933   1.084       .  S
C1924      C1925   1.406       .  A
C1925      H1934   1.084       .  S
C1926      C1927   1.407       .  A
C1926      H1935   1.084       .  S
C1927      C1928   1.407       .  A
C1928      H1936   1.084       .  S
C1937      C1938   1.398       .  A
C1937      C1942   1.403       .  A
C1937      H1953   1.083       .  S
C1938      C1939   1.403       .  A
C1938      H1954   1.083       .  S
C1939      C1949   1.403       .  A
C1939      C1940   1.412       .  A
C1940      C1941   1.413       .  A
C1941      C1943   1.411       .  A
C1941      C1942   1.412       .  A
C1942      C1950   1.404       .  A
C1943      C1952   1.404       .  A
C1944      C1945   1.401       .  A
C1944      H1955   1.084       .  S
C1945      C1946   1.404       .  A
C1945      H1956   1.083       .  S
C1946      C1947   1.407       .  A
C1947      H1957   1.084       .  S
C1948      C1949   1.402       .  A
C1949      H1958   1.085       .  S
C1950      C1951   1.405       .  A
C1950      H1959   1.084       .  S
C1951      C1952   1.410       .  A
C1961      H1977   1.084       .  S
C1962      C1963   1.402       .  A
C1963      C1973   1.402       .  A
C1963      C1964   1.412       .  A
C1964      C1970   1.410       .  A
C1964      C1965   1.414       .  A
C1965      C1967   1.413       .  A
C1965      C1966   1.409       .  A
C1966      C1974   1.398       .  A
C1967      C1976   1.411       .  A
C1967      C1968   1.405       .  A
C1968      C1969   1.403       .  A
C1968      H1979   1.084       .  S
C1969      C1970   1.406       .  A
C1969      H1980   1.083       .  S
C1970      C1971   1.408       .  A
C1971      C1972   1.412       .  A
C1971      H1981   1.084       .  S
C1972      C1973   1.406       .  A
C1973      H1982   1.084       .  S
C1974      C1975   1.407       .  A
C1975      C1976   1.408       .  A
C1976      H1984   1.083       .  S
C1985      C1986   1.399       .  A
C1985      C1990   1.403       .  A
C1985      H2001   1.084       .  S
C1986      C1987   1.404       .  A
C1986      H2002   1.084       .  S
C1987      C1997   1.402       .  A
C1987      C1988   1.410       .  A
C1988      C1994   1.412       .  A
C1988      C1989   1.413       .  A
C1989      C1991   1.412       .  A
C1989      C1990   1.413       .  A
C1990      C1998   1.404       .  A
C1991      C2000   1.404       .  A
C1991      C1992   1.404       .  A
C1992      C1993   1.400       .  A
C1992      H2003   1.083       .  S
C1993      C1994   1.404       .  A
C1993      H2004   1.083       .  S
C1994      C1995   1.407       .  A
C1995      C1996   1.408       .  A
C1995      H2005   1.084       .  S
C1996      C1997   1.408       .  A
C1997      H2006   1.084       .  S
C1998      C1999   1.404       .  A
C1998      H2007   1.084       .  S
C1999      C2000   1.404       .  A
C2000      H2008   1.084       .  S
C2009      C2010   1.400       .  A
C2009      C2014   1.404       .  A
C2009      H2025   1.084       .  S
C2010      C2011   1.404       .  A
C2011      C2021   1.407       .  A
C2011      C2012   1.411       .  A
C2012      C2018   1.411       .  A
C2012      C2013   1.417       .  A
C2013      C2015   1.413       .  A
C2013      C2014   1.412       .  A
C2014      C2022   1.405       .  A
C2015      C2024   1.410       .  A
C2015      C2016   1.404       .  A
C2016      C2017   1.403       .  A
C2016      H2027   1.083       .  S
C2017      C2018   1.405       .  A
C2017      H2028   1.083       .  S
C2018      C2019   1.410       .  A
C2019      C2020   1.411       .  A
C2019      H2029   1.084       .  S
C2020      C2021   1.410       .  A
C2021      H2030   1.084       .  S
C2022      C2023   1.405       .  A
C2022      H2031   1.084       .  S
C2023      C2024   1.406       .  A
C2024      H2032   1.084       .  S
C2033      C2034   1.407       .  A
C2033      C2038   1.408       .  A
C2033      H2049   1.083       .  S
C2034      C2035   1.407       .  A
C2034      H2050   1.084       .  S
C2035      C2045   1.415       .  A
C2036      C2042   1.411       .  A
C2036      C2037   1.419       .  A
C2037      C2039   1.412       .  A
C2038      C2046   1.415       .  A
C2039      C2048   1.411       .  A
C2039      C2040   1.405       .  A
C2040      C2041   1.403       .  A
C2040      H2051   1.084       .  S
C2041      C2042   1.405       .  A
C2041      H2052   1.084       .  S
C2042      C2043   1.409       .  A
C2043      C2044   1.409       .  A
C2043      H2053   1.084       .  S
C2045      H2054   1.083       .  S
C2046      H2055   1.084       .  S
C2047      C2048   1.411       .  A
C2048      H2056   1.084       .  S
C2057      C2058   1.403       .  A
C2057      C2062   1.405       .  A
C2057      H2073   1.083       .  S
C2058      C2059   1.405       .  A
C2058      H2074   1.083       .  S
C2059      C2069   1.412       .  A
C2059      C2060   1.411       .  A
C2060      C2061   1.419       .  A
C2061      C2062   1.410       .  A
C2062      C2070   1.411       .  A
C2063      C2072   1.404       .  A
C2063      C2064   1.405       .  A
C2064      C2065   1.399       .  A
C2064      H2075   1.083       .  S
C2065      C2066   1.402       .  A
C2065      H2076   1.083       .  S
C2066      C2067   1.406       .  A
C2067      H2077   1.084       .  S
C2068      C2069   1.411       .  A
C2069      H2078   1.084       .  S
C2070      C2071   1.415       .  A
C2070      H2079   1.084       .  S
C2072      H2080   1.076       .  S
C2081      C2082   1.398       .  A
C2081      C2086   1.404       .  A
C2082      C2083   1.403       .  A
C2083      C2093   1.404       .  A
C2083      C2084   1.411       .  A
C2084      C2090   1.411       .  A
C2084      C2085   1.417       .  A
C2085      C2087   1.411       .  A
C2085      C2086   1.409       .  A
C2086      C2094   1.402       .  A
C2087      C2096   1.412       .  A
C2087      C2088   1.406       .  A
C2088      C2089   1.404       .  A
C2088      H2099   1.083       .  S
C2089      C2090   1.406       .  A
C2089      H2100   1.083       .  S
C2090      C2091   1.411       .  A
C2091      C2092   1.411       .  A
C2091      H2101   1.084       .  S
C2092      C2093   1.407       .  A
C2093      H2102   1.084       .  S
C2094      C2095   1.412       .  A
C2095      C2096   1.414       .  A
C2096      H2104   1.081       .  S
C2105      C2110   1.403       .  A
C2106      H2122   1.084       .  S
C2107      C2108   1.411       .  A
C2108      C2114   1.412       .  A
C2108      C2109   1.415       .  A
C2109      C2111   1.412       .  A
C2109      C2110   1.410       .  A
C2110      C2118   1.401       .  A
C2111      C2120   1.411       .  A
C2111      C2112   1.405       .  A
C2112      C2113   1.403       .  A
C2112      H2123   1.083       .  S
C2113      C2114   1.405       .  A
C2113      H2124   1.083       .  S
C2114      C2115   1.410       .  A
C2115      C2116   1.408       .  A
C2115      H2125   1.083       .  S
C2117      H2126   1.083       .  S
C2118      C2119   1.408       .  A
C2118      H2127   1.084       .  S
C2119      C2120   1.410       .  A
C2120      H2128   1.084       .  S
