geometry optimzed in LAMMPS
_audit_creation_date              2020-11-30 
_audit_creation_method            'lammps2cif' 
_symmetry_space_group_name_H-M    'P1' 
_symmetry_Int_Tables_number       1 
_symmetry_cell_setting            triclinic 
loop_ 
_symmetry_equiv_pos_as_xyz 
  x,y,z 
_cell_length_a                    30.254306836912836 
_cell_length_b                    30.256848652952748 
_cell_length_c                    27.664553637645025 
_cell_angle_alpha                 89.99982539253917 
_cell_angle_beta                  90.00029328658216 
_cell_angle_gamma                 120.00729860913229 
loop_ 
_atom_site_label 
_atom_site_type_symbol 
_atom_site_fract_x 
_atom_site_fract_y 
_atom_site_fract_z 
_atom_site_charge 
O1          O  0.06221466  0.55746670  0.55098335    -0.71350
O2          O  0.01398667  0.44848723  0.44893711    -0.72330
O3          O  0.06221330  0.55746780  0.44894779    -0.60950
O4          O  0.01398709  0.44848919  0.55099669    -0.69360
O5          O  0.93784876  0.44281911  0.55098484    -0.68910
O6          O  0.98607294  0.55179333  0.44893765    -0.60160
O7          O  0.93784739  0.44281470  0.44894898    -0.72670
O8          O  0.98607525  0.55179454  0.55099393    -0.71450
Cu9        Cu  0.04077321  0.50317639  0.49996591     1.04560
Cu10       Cu  0.95928883  0.49710730  0.49996604     1.04330
C11         C  0.03199835  0.57238209  0.56620909     0.94850
C12         C  0.96806211  0.42789618  0.43372480     0.93990
C13         C  0.03199642  0.57238371  0.43372379     0.86130
C14         C  0.96806364  0.42790196  0.56621126     0.92410
O15         O  0.49491354  0.55702477  0.94901127    -0.71350
O16         O  0.43416404  0.44804127  0.05105413    -0.72330
O17         O  0.49490409  0.55701612  0.05104406    -0.60950
O18         O  0.43416539  0.44804348  0.94899650    -0.69360
O19         O  0.50464748  0.44240106  0.94901033    -0.68910
O20         O  0.56539051  0.55138136  0.05106087    -0.60160
O21         O  0.50464875  0.44240328  0.05104439    -0.72670
O22         O  0.56539727  0.55138562  0.94899959    -0.71450
Cu23       Cu  0.46206216  0.50272824  0.00002574     1.04560
Cu24       Cu  0.53749604  0.49669548  0.00002822     1.04330
C25         C  0.54005512  0.57196113  0.93378809     0.94850
C26         C  0.45950979  0.42747192  0.06627096     0.93990
C27         C  0.54004207  0.57194931  0.06627448     0.86130
C28         C  0.45950724  0.42746840  0.93378485     0.92410
O29         O  0.93621760  0.49475342  0.94868449    -0.71350
O30         O  0.98442397  0.43399612  0.05072873    -0.72330
O31         O  0.93621620  0.49475955  0.05071787    -0.60950
O32         O  0.98443233  0.43400314  0.94867252    -0.69360
O33         O  0.06057756  0.50447195  0.94868221    -0.68910
O34         O  0.01236026  0.56523035  0.05073710    -0.60160
O35         O  0.06057347  0.50445905  0.05072527    -0.72670
O36         O  0.01235732  0.56523010  0.94866987    -0.71450
Cu37       Cu  0.95765194  0.46190730  0.99970147     1.04560
Cu38       Cu  0.03914173  0.53732535  0.99970438     1.04330
C39         C  0.96643383  0.53988490  0.93345210     0.94850
C40         C  0.03034849  0.45931885  0.06594204     0.93990
C41         C  0.96643473  0.53989244  0.06594861     0.86130
C42         C  0.03035642  0.45933507  0.93345836     0.92410
N43         N  0.76231326  0.13359264  0.20116857    -0.25690
N44         N  0.76927902  0.09676765  0.18385232    -0.33550
C45         C  0.73051083  0.06723684  0.15398418     0.02650
C46         C  0.69776164  0.08650389  0.15251289     0.08670
C47         C  0.71889999  0.12856295  0.18258022    -0.04430
H48         H  0.72651402  0.03421058  0.13490337     0.09340
H49         H  0.70387038  0.15355033  0.19050707     0.10540
Cu50       Cu  0.83036395  0.08750651  0.20232508     0.44170
Cu51       Cu  0.81176931  0.18826961  0.25001052     0.41990
Cu52       Cu  0.91242129  0.16942189  0.29779262     0.43880
N53         N  0.89022909  0.08190806  0.23151413    -0.33080
N54         N  0.91779512  0.10940936  0.26859008    -0.27330
C55         C  0.95061820  0.09377381  0.28129730    -0.03430
C56         C  0.94418791  0.05530805  0.24998554     0.08780
C57         C  0.90573405  0.04900711  0.21872940     0.02580
H58         H  0.97774542  0.10981391  0.31066435     0.10230
H59         H  0.88964996  0.02195660  0.18930930     0.09310
N60         N  0.90328054  0.23061906  0.31619830    -0.34530
N61         N  0.86650708  0.23765551  0.29884735    -0.26710
C62         C  0.87160358  0.28110447  0.31740167    -0.01950
C63         C  0.91364943  0.30220237  0.34748634     0.06660
C64         C  0.93284281  0.26938652  0.34605931     0.04750
H65         H  0.84666315  0.29618347  0.30944340     0.09860
H66         H  0.96583688  0.27333549  0.36517132     0.08690
N67         N  0.13334491  0.76259053  0.29878915    -0.25690
N68         N  0.09649207  0.76952366  0.31609377    -0.33550
C69         C  0.06698438  0.73075194  0.34597040     0.02650
C70         C  0.08629906  0.69804039  0.34745528     0.08670
C71         C  0.12835887  0.71920394  0.31738823    -0.04430
H72         H  0.03394174  0.72672589  0.36504807     0.09340
H73         H  0.15337767  0.70420851  0.30946741     0.10540
Cu74       Cu  0.08719052  0.83059055  0.29758659     0.44170
Cu75       Cu  0.18801029  0.81204114  0.24994878     0.41990
Cu76       Cu  0.16920428  0.91269617  0.20215958     0.43880
N77         N  0.08162723  0.89048653  0.26838377    -0.33080
N78         N  0.10916244  0.91806045  0.23132564    -0.27330
C79         C  0.09354195  0.95089058  0.21860082    -0.03430
C80         C  0.05505331  0.94447024  0.24988427     0.08780
C81         C  0.04872406  0.90600359  0.28114097     0.02580
H82         H  0.10960369  0.97801099  0.18923254     0.10230
H83         H  0.02165182  0.88991881  0.31054570     0.09310
N84         N  0.23039433  0.90352945  0.18375422    -0.34530
N85         N  0.23740701  0.86674583  0.20110960    -0.26710
C86         C  0.28084137  0.87180377  0.18255158    -0.01950
C87         C  0.30195737  0.91383621  0.15245808     0.06660
C88         C  0.26916702  0.93306290  0.15388380     0.04750
H89         H  0.29589619  0.84684429  0.19051164     0.09860
H90         H  0.27313463  0.96605612  0.13476178     0.08690
C91         C  0.97257288  0.02692905  0.24988591     0.03880
C92         C  0.94553556  0.97285275  0.24995763     0.03880
C93         C  0.97257249  0.94581034  0.25001739     0.03880
C94         C  0.02666465  0.97285442  0.24994341     0.03880
C95         C  0.05370929  0.02694685  0.24987743     0.03880
C96         C  0.02665540  0.05397902  0.24976753     0.03880
N97         N  0.62863527  0.86627622  0.29883937    -0.25690
N98         N  0.67244197  0.90309916  0.31615126    -0.33550
C99         C  0.66322135  0.93263725  0.34601875     0.02650
C100        C  0.61119926  0.91337818  0.34749570     0.08670
C101        C  0.59025974  0.87131594  0.31743055    -0.04430
H102        H  0.69226638  0.96566403  0.36509563     0.09340
H103        H  0.55023304  0.84633206  0.30950694     0.10540
Cu104      Cu  0.74278608  0.91234419  0.29766843     0.44170
Cu105      Cu  0.62337898  0.81158313  0.24999711     0.41990
Cu106      Cu  0.74284399  0.83043422  0.20215744     0.43880
N107        N  0.80822523  0.91791002  0.26844073    -0.33080
N108        N  0.80825003  0.89041802  0.23134315    -0.27330
C109        C  0.85669750  0.90603430  0.21860064    -0.03430
C110        C  0.88877043  0.94447451  0.24991484     0.08780
C111        C  0.85665285  0.95078608  0.28120754     0.02580
H112        H  0.86774917  0.89000003  0.18920521     0.10230
H113        H  0.86765794  0.97783399  0.31063288     0.09310
N114        N  0.67250547  0.76922883  0.18378927    -0.34530
N115        N  0.62869618  0.76218009  0.20115791    -0.26710
C116        C  0.59033609  0.71871681  0.18261864    -0.01950
C117        C  0.61128468  0.69762822  0.15252887     0.06660
C118        C  0.66329795  0.73046121  0.15393591     0.04750
H119        H  0.55031213  0.70362263  0.19058904     0.09860
H120        H  0.69234488  0.72652549  0.13481467     0.08690
N121        N  0.23617039  0.37104852  0.29855756    -0.25690
N122        N  0.22929828  0.32729164  0.31586948    -0.33550
C123        C  0.26808748  0.33660424  0.34573355     0.02650
C124        C  0.30075465  0.38863768  0.34720709     0.08670
C125        C  0.27954673  0.40949075  0.31714538    -0.04430
H126        H  0.27216267  0.30761280  0.36479640     0.09340
H127        H  0.29451096  0.44949851  0.30921199     0.10540
Cu128      Cu  0.16834505  0.25689681  0.29734741     0.44170
Cu129      Cu  0.18664548  0.37611357  0.24970087     0.41990
Cu130      Cu  0.08616767  0.25650528  0.20184460     0.43880
N131        N  0.10869577  0.19135851  0.26806125    -0.33080
N132        N  0.08109469  0.19119926  0.23097570    -0.27330
C133        C  0.04842749  0.14270271  0.21823972    -0.03430
C134        C  0.05499517  0.11074601  0.24954790     0.08780
C135        C  0.09336854  0.14298442  0.28082467     0.02580
H136        H  0.02127417  0.13153264  0.18888781     0.10230
H137        H  0.10948429  0.13210193  0.31028005     0.09310
N138        N  0.09515985  0.32681497  0.18347476    -0.34530
N139        N  0.13187868  0.37064892  0.20085102    -0.26710
C140        C  0.12673350  0.40897153  0.18229914    -0.01950
C141        C  0.08471396  0.38798963  0.15218562     0.06660
C142        C  0.06558316  0.33598252  0.15359473     0.04750
H143        H  0.15163226  0.44899856  0.19027220     0.09860
H144        H  0.03263105  0.30691649  0.13444704     0.08690
N145        N  0.37068536  0.23728363  0.20122509    -0.25690
N146        N  0.32689665  0.23032516  0.18389708    -0.33550
C147        C  0.33615744  0.26909249  0.15402276     0.02650
C148        C  0.38818703  0.30183099  0.15256091     0.08670
C149        C  0.40908874  0.28068715  0.18264039    -0.04430
H150        H  0.30713617  0.27309435  0.13492802     0.09340
H151        H  0.44910830  0.29570546  0.19057619     0.10540
Cu152      Cu  0.25653154  0.16923020  0.20236049     0.44170
Cu153      Cu  0.37588236  0.18782805  0.25007100     0.41990
Cu154      Cu  0.25638982  0.08713413  0.29782156     0.43880
N155        N  0.19106259  0.10932419  0.23152824    -0.33080
N156        N  0.19099664  0.08175948  0.26860268    -0.27330
C157        C  0.14252881  0.04892736  0.28130043    -0.03430
C158        C  0.11048438  0.05534027  0.24998070     0.08780
C159        C  0.14264865  0.09379942  0.21873057     0.02580
H160        H  0.13144287  0.02180938  0.31067263     0.10230
H161        H  0.13168551  0.10987603  0.18930378     0.09310
N162        N  0.32675281  0.09631769  0.31625051    -0.34530
N163        N  0.37056037  0.13311438  0.29890792    -0.26710
C164        C  0.40893728  0.12806221  0.31747182    -0.01950
C165        C  0.38801167  0.08602091  0.34755610     0.06660
C166        C  0.33598620  0.06678269  0.34611762     0.04750
H167        H  0.44896004  0.15303109  0.30952016     0.09860
H168        H  0.30695040  0.03377805  0.36522704     0.08690
N169        N  0.86509796  0.62877818  0.20087087    -0.25690
N170        N  0.90203360  0.67255557  0.18362991    -0.33550
C171        C  0.93153201  0.66326455  0.15377455     0.02650
C172        C  0.91212896  0.61122667  0.15223141     0.08670
C173        C  0.87002273  0.59035033  0.18224564    -0.04430
H174        H  0.96463608  0.69227354  0.13475836     0.09340
H175        H  0.84493732  0.55033297  0.19011782     0.10540
Cu176      Cu  0.91149888  0.74295388  0.20221826     0.44170
Cu177      Cu  0.81043387  0.62364710  0.24967997     0.41990
Cu178      Cu  0.82959381  0.74320152  0.29764750     0.43880
N179        N  0.91733347  0.80846206  0.23154879    -0.33080
N180        N  0.88983843  0.80854956  0.26861805    -0.27330
C181        C  0.90561259  0.85701661  0.28140525    -0.03430
C182        C  0.94415527  0.88904093  0.25014314     0.08780
C183        C  0.95036455  0.85686637  0.21884380     0.02580
H184        H  0.88958100  0.86811847  0.31076443     0.10230
H185        H  0.97740675  0.86781469  0.18941721     0.09310
N186        N  0.76822983  0.67290076  0.31591810    -0.34530
N187        N  0.76108938  0.62907556  0.29850764    -0.26710
C188        C  0.71758512  0.59075376  0.31702303    -0.01950
C189        C  0.69655854  0.61173650  0.34714353     0.06660
C190        C  0.72947363  0.66373535  0.34577906     0.04750
H191        H  0.70243106  0.55072938  0.30902874     0.09860
H192        H  0.72561241  0.69279777  0.36495123     0.08690
N193        N  0.76233000  0.13359464  0.79877746    -0.25690
N194        N  0.76929571  0.09676638  0.81608590    -0.33550
C195        C  0.73052740  0.06723289  0.84595385     0.02650
C196        C  0.69777934  0.08650208  0.84743290     0.08670
C197        C  0.71891843  0.12856449  0.81737021    -0.04430
H198        H  0.72652894  0.03420277  0.86502858     0.09340
H199        H  0.70388974  0.15355379  0.80944857     0.10540
Cu200      Cu  0.83038082  0.08750386  0.79759899     0.44170
Cu201      Cu  0.81177819  0.18827923  0.74993712     0.41990
Cu202      Cu  0.91238617  0.16940958  0.70209912     0.43880
N203        N  0.89023931  0.08190954  0.76837543    -0.33080
N204        N  0.91777481  0.10940135  0.73128187    -0.27330
C205        C  0.95059159  0.09376802  0.71854587    -0.03430
C206        C  0.94419562  0.05531695  0.74985945     0.08780
C207        C  0.90576355  0.04901918  0.78114504     0.02580
H208        H  0.97769285  0.10980162  0.68915816     0.10230
H209        H  0.88970470  0.02197506  0.81057271     0.09310
N210        N  0.90326492  0.23062235  0.68372459    -0.34530
N211        N  0.86650588  0.23766936  0.70109572    -0.26710
C212        C  0.87161060  0.28112702  0.68255522    -0.01950
C213        C  0.91364752  0.30221837  0.65245928     0.06660
C214        C  0.93282650  0.26939052  0.65386506     0.04750
H215        H  0.84668095  0.29621497  0.69052866     0.09860
H216        H  0.96580894  0.27333038  0.63473793     0.08690
N217        N  0.13334955  0.76258173  0.70115159    -0.25690
N218        N  0.09651206  0.76952663  0.68382527    -0.33550
C219        C  0.06700550  0.73075474  0.65394906     0.02650
C220        C  0.08630516  0.69803041  0.65248629     0.08670
C221        C  0.12835519  0.71918647  0.68256642    -0.04430
H222        H  0.03397532  0.72673878  0.63485469     0.09340
H223        H  0.15336275  0.70418158  0.69050353     0.10540
Cu224      Cu  0.08723201  0.83061130  0.70230046     0.44170
Cu225      Cu  0.18800446  0.81203563  0.74999755     0.41990
Cu226      Cu  0.16919558  0.91270714  0.79775942     0.43880
N227        N  0.08165757  0.89050642  0.73148139    -0.33080
N228        N  0.10916351  0.91807061  0.76855690    -0.27330
C229        C  0.09352660  0.95089215  0.78126605    -0.03430
C230        C  0.05506009  0.94447682  0.74995317     0.08780
C231        C  0.04876236  0.90602365  0.71869508     0.02580
H232        H  0.10956418  0.97800558  0.81064223     0.10230
H233        H  0.02171477  0.88994571  0.68927036     0.09310
N234        N  0.23038338  0.90353662  0.81618012    -0.34530
N235        N  0.23739435  0.86674836  0.79883411    -0.26710
C236        C  0.28082704  0.87180641  0.81739665    -0.01950
C237        C  0.30194522  0.91384342  0.84748365     0.06660
C238        C  0.26915716  0.93307335  0.84604936     0.04750
H239        H  0.29588009  0.84684423  0.80944285     0.09860
H240        H  0.27312796  0.96607172  0.86516370     0.08690
C241        C  0.97258230  0.02693969  0.74992752     0.03880
C242        C  0.94554387  0.97286282  0.74986231     0.03880
C243        C  0.97257708  0.94581827  0.74975760     0.03880
C244        C  0.02667042  0.97285985  0.74986504     0.03880
C245        C  0.05371640  0.02695288  0.74993934     0.03880
C246        C  0.02666625  0.05398754  0.75000917     0.03880
N247        N  0.37066720  0.23726043  0.79885401    -0.25690
N248        N  0.32687148  0.23032021  0.81614481    -0.33550
C249        C  0.33612899  0.26908822  0.84601839     0.02650
C250        C  0.38816240  0.30180683  0.84751715     0.08670
C251        C  0.40906900  0.28065049  0.81746096    -0.04430
H252        H  0.30710297  0.27310707  0.86508377     0.09340
H253        H  0.44909171  0.29565411  0.80955204     0.10540
Cu254      Cu  0.25650009  0.16925256  0.79762524     0.44170
Cu255      Cu  0.37589142  0.18781319  0.75001810     0.41990
Cu256      Cu  0.25643647  0.08717076  0.70219236     0.43880
N257        N  0.19105053  0.10935203  0.76840579    -0.33080
N258        N  0.19102288  0.08179005  0.73134610    -0.27330
C259        C  0.14257050  0.04894985  0.71861072    -0.03430
C260        C  0.11049172  0.05535140  0.74989055     0.08780
C261        C  0.14262113  0.09381766  0.78115452     0.02580
H262        H  0.13151887  0.02183515  0.68923922     0.10230
H263        H  0.13162327  0.10988925  0.81055862     0.09310
N264        N  0.32679509  0.09633608  0.68380590    -0.34530
N265        N  0.37059639  0.13311662  0.70117468    -0.26710
C266        C  0.40897590  0.12805952  0.68262544    -0.01950
C267        C  0.38805480  0.08603090  0.65252440     0.06660
C268        C  0.33603224  0.06680647  0.65393737     0.04750
H269        H  0.44899623  0.15301768  0.69059534     0.09860
H270        H  0.30700075  0.03381706  0.63480679     0.08690
N271        N  0.23614752  0.37101738  0.70080824    -0.25690
N272        N  0.22929400  0.32724935  0.68354402    -0.33550
C273        C  0.26807761  0.33655545  0.65367224     0.02650
C274        C  0.30071966  0.38859410  0.65214542     0.08670
C275        C  0.27950248  0.40945555  0.68218333    -0.04430
H276        H  0.27217060  0.30755621  0.63464573     0.09340
H277        H  0.29445033  0.44946799  0.69008112     0.10540
Cu278      Cu  0.16837827  0.25684526  0.70215089     0.44170
Cu279      Cu  0.18664756  0.37612830  0.74966465     0.41990
Cu280      Cu  0.08627194  0.25658039  0.79765844     0.43880
N281        N  0.10874329  0.19133778  0.73152750    -0.33080
N282        N  0.08117263  0.19124027  0.76861255    -0.27330
C283        C  0.04849785  0.14276822  0.78141257    -0.03430
C284        C  0.05502025  0.11075547  0.75014542     0.08780
C285        C  0.09338521  0.14293856  0.71882948     0.02580
H286        H  0.02136939  0.13165358  0.81078057     0.10230
H287        H  0.10947128  0.13200036  0.68939127     0.09310
N288        N  0.09522757  0.32688181  0.81595897    -0.34530
N289        N  0.13191298  0.37070593  0.79853402    -0.26710
C290        C  0.12675168  0.40903043  0.81705674    -0.01950
C291        C  0.08475484  0.38805430  0.84720043     0.06660
C292        C  0.06565634  0.33605308  0.84583971     0.04750
H293        H  0.15162408  0.44905294  0.80904593     0.09860
H294        H  0.03273110  0.30699293  0.86502278     0.08690
N295        N  0.62861387  0.86628766  0.70124918    -0.25690
N296        N  0.67241395  0.90309494  0.68391138    -0.33550
C297        C  0.66318899  0.93262704  0.65404153     0.02650
C298        C  0.61116965  0.91338103  0.65258895     0.08670
C299        C  0.59023529  0.87133155  0.68267137    -0.04430
H300        H  0.69222944  0.96563851  0.63494334     0.09340
H301        H  0.55021106  0.84635773  0.69061238     0.10540
Cu302      Cu  0.74275393  0.91232244  0.70235262     0.44170
Cu303      Cu  0.62338624  0.81161146  0.75009880     0.41990
Cu304      Cu  0.74289287  0.83042424  0.79783406     0.43880
N305        N  0.80821398  0.91789409  0.73151445    -0.33080
N306        N  0.80827865  0.89040398  0.76859620    -0.27330
C307        C  0.85674222  0.90603037  0.78128870    -0.03430
C308        C  0.88877872  0.94447899  0.74996126     0.08780
C309        C  0.85662543  0.95077919  0.71870977     0.02580
H310        H  0.86783006  0.89000069  0.81066026     0.10230
H311        H  0.86759477  0.97782438  0.68928572     0.09310
N312        N  0.67254779  0.76924607  0.81626005    -0.34530
N313        N  0.62873106  0.76221593  0.79892894    -0.26710
C314        C  0.59037268  0.71876655  0.81749155    -0.01950
C315        C  0.61132636  0.69766523  0.84755863     0.06660
C316        C  0.66334378  0.73047805  0.84611355     0.04750
H317        H  0.55034533  0.70368746  0.80954846     0.09860
H318        H  0.69239588  0.72652531  0.86520536     0.08690
N319        N  0.86507783  0.62873695  0.79850948    -0.25690
N320        N  0.90198103  0.67250459  0.81579905    -0.33550
C321        C  0.93147352  0.66320935  0.84565614     0.02650
C322        C  0.91210153  0.61117684  0.84715177     0.08670
C323        C  0.87001770  0.59030663  0.81710669    -0.04430
H324        H  0.96455110  0.69221254  0.86470805     0.09340
H325        H  0.84495758  0.55029355  0.80919735     0.10540
Cu326      Cu  0.91141095  0.74289542  0.79727911     0.44170
Cu327      Cu  0.81044558  0.62364933  0.74967997     0.41990
Cu328      Cu  0.82957435  0.74327107  0.70184617     0.43880
N329        N  0.91727159  0.80843814  0.76803462    -0.33080
N330        N  0.88980578  0.80858818  0.73096698    -0.27330
C331        C  0.90561047  0.85708056  0.71824651    -0.03430
C332        C  0.94414582  0.88904860  0.74954726     0.08780
C333        C  0.95031075  0.85681746  0.78080400     0.02580
H334        H  0.88960770  0.86823885  0.68890575     0.10230
H335        H  0.97732887  0.86770958  0.81024597     0.09310
N336        N  0.76824700  0.67296044  0.68348911    -0.34530
N337        N  0.76112516  0.62912364  0.70085172    -0.26710
C338        C  0.71764219  0.59080582  0.68229834    -0.01950
C339        C  0.69660614  0.61179714  0.65220105     0.06660
C340        C  0.72949631  0.66380165  0.65361965     0.04750
H341        H  0.70250457  0.55077651  0.69025676     0.09860
H342        H  0.72561738  0.69287239  0.63448381     0.08690
O343        O  0.56529769  0.01370506  0.44899110    -0.71350
O344        O  0.50454299  0.06192787  0.55104469    -0.72330
O345        O  0.56529797  0.01370534  0.55105878    -0.60950
O346        O  0.50453383  0.06192500  0.44900448    -0.69360
O347        O  0.43405911  0.98578602  0.44899920    -0.68910
O348        O  0.49481288  0.93757389  0.55104317    -0.60160
O349        O  0.43406516  0.98579096  0.55105509    -0.72670
O350        O  0.49481575  0.93757144  0.44901062    -0.71450
Cu351      Cu  0.53739535  0.04048979  0.50002402     1.04560
Cu352      Cu  0.46196633  0.95900996  0.50002645     1.04330
C353        C  0.53995329  0.96778340  0.43377993     0.94850
C354        C  0.45940286  0.03171066  0.56626954     0.93990
C355        C  0.53994891  0.96778593  0.56627582     0.86130
C356        C  0.45939038  0.03170640  0.43378597     0.92410
O357        O  0.55720388  0.06231000  0.94895129    -0.71350
O358        O  0.44822447  0.01407705  0.05099036    -0.72330
O359        O  0.55719907  0.06230865  0.05098069    -0.60950
O360        O  0.44822612  0.01408019  0.94893919    -0.69360
O361        O  0.44255627  0.93794829  0.94894512    -0.68910
O362        O  0.55154508  0.98618341  0.05099677    -0.60160
O363        O  0.44255769  0.93794644  0.05098309    -0.72670
O364        O  0.55154671  0.98618352  0.94893457    -0.71450
Cu365      Cu  0.50291233  0.04086447  0.99996510     1.04560
Cu366      Cu  0.49685437  0.95939144  0.99996456     1.04330
C367        C  0.57212616  0.03210310  0.93372108     0.94850
C368        C  0.42763718  0.96815881  0.06620574     0.93990
C369        C  0.57212039  0.03210191  0.06621276     0.86130
C370        C  0.42763570  0.96816174  0.93372452     0.92410
O371        O  0.44699055  0.43462476  0.44866472    -0.71350
O372        O  0.55598539  0.49538422  0.55071027    -0.72330
O373        O  0.44699183  0.43462423  0.55071873    -0.60950
O374        O  0.55597300  0.49537092  0.44866954    -0.69360
O375        O  0.55032285  0.56584314  0.44865756    -0.68910
O376        O  0.44134217  0.50509725  0.55070116    -0.60160
O377        O  0.55032762  0.56585177  0.55071699    -0.72670
O378        O  0.44134855  0.50510240  0.44867859    -0.71450
Cu379      Cu  0.50168266  0.46252477  0.49969190     1.04560
Cu380      Cu  0.49563766  0.53794628  0.49968949     1.04330
C381        C  0.42641979  0.45996994  0.43345088     0.94850
C382        C  0.57091347  0.54052178  0.56593190     0.93990
C383        C  0.42641101  0.45996210  0.56592542     0.86130
C384        C  0.57089692  0.54050350  0.43343867     0.92410
C385        C  0.65045859  0.58515118  0.62432034    -0.11680
C386        C  0.61294714  0.56397564  0.59915681    -0.13240
C387        C  0.56336476  0.94919738  0.59952426    -0.11680
C388        C  0.58449344  0.93283713  0.62471053    -0.13240
C389        C  0.38437996  0.43652524  0.59914387    -0.11680
C390        C  0.34686656  0.41534522  0.62429636    -0.13240
C391        C  0.41476468  0.06659934  0.62465938    -0.11680
C392        C  0.43595488  0.05028544  0.59949757    -0.13240
C393        C  0.34809177  0.93327733  0.87534781    -0.11680
C394        C  0.38560401  0.94958548  0.90050301    -0.13240
C395        C  0.65164024  0.06705012  0.87530567    -0.11680
C396        C  0.61414133  0.05069616  0.90048195    -0.13240
C397        C  0.65041167  0.58509221  0.37501924    -0.11680
C398        C  0.61291098  0.56393685  0.40019545    -0.13240
C399        C  0.41472366  0.06658718  0.37541833    -0.11680
C400        C  0.43592830  0.05027921  0.40056961    -0.13240
C401        C  0.34690138  0.41538732  0.37505200    -0.11680
C402        C  0.38440520  0.43654895  0.40021652    -0.13240
C403        C  0.56337971  0.94919353  0.40054380    -0.11680
C404        C  0.58452156  0.93283758  0.37536934    -0.13240
C405        C  0.38561026  0.94958088  0.09943203    -0.11680
C406        C  0.34810179  0.93326899  0.12459211    -0.13240
C407        C  0.61412921  0.05069506  0.09945804    -0.11680
C408        C  0.65162425  0.06705271  0.12463931    -0.13240
C409        C  0.93152220  0.58448914  0.12436021    -0.11680
C410        C  0.94785047  0.56332267  0.09918561    -0.13240
C411        C  0.04891777  0.43584953  0.09915597    -0.11680
C412        C  0.06523219  0.41465088  0.12430870    -0.13240
C413        C  0.06526509  0.41470949  0.87507198    -0.11680
C414        C  0.04893305  0.43588471  0.90023286    -0.13240
C415        C  0.94784566  0.56330005  0.90020322    -0.11680
C416        C  0.93150159  0.58444467  0.87501945    -0.13240
C417        C  0.43607829  0.38545785  0.09950897    -0.11680
C418        C  0.41490684  0.34796262  0.12468483    -0.13240
C419        C  0.41488372  0.34794116  0.87539137    -0.11680
C420        C  0.43606660  0.38544401  0.90055731    -0.13240
C421        C  0.56346799  0.61396755  0.09950956    -0.11680
C422        C  0.58461440  0.65147409  0.12467474    -0.13240
C423        C  0.58465438  0.65150821  0.87541188    -0.11680
C424        C  0.56349478  0.61399302  0.90056637    -0.13240
C425        C  0.93312831  0.34835500  0.37534412    -0.11680
C426        C  0.94947425  0.38586711  0.40050082    -0.13240
C427        C  0.94947639  0.38587935  0.59944149    -0.11500
C428        C  0.93312749  0.34837085  0.62460271    -0.13240
C429        C  0.05057944  0.61439979  0.59944254    -0.11680
C430        C  0.06689697  0.65189790  0.62461302    -0.13240
C431        C  0.06689157  0.65190757  0.37532905    -0.11680
C432        C  0.05057685  0.61440623  0.40049528    -0.13240
loop_ 
_geom_bond_atom_site_label_1 
_geom_bond_atom_site_label_2 
_geom_bond_distance 
_geom_bond_site_symmetry_2 
_ccdc_geom_bond_type 
O1           Cu9   2.011       .  S
O1           C11   1.277       .  A
O2           Cu9   2.012       .  S
O2           C12   1.277   1_455  A
O3           Cu9   2.011       .  S
O3           C13   1.277       .  A
O4           Cu9   2.012       .  S
O4           C14   1.277   1_455  A
O5          Cu10   2.011       .  S
O5           C14   1.277       .  A
O6          Cu10   2.012       .  S
O6           C13   1.277   1_655  A
O7          Cu10   2.011       .  S
O7           C12   1.277       .  A
O8          Cu10   2.012       .  S
O8           C11   1.277   1_655  A
Cu9         Cu10   2.379   1_455  S
C11         C429   1.436       .  S
C12         C426   1.436       .  S
C13         C432   1.436       .  S
C14         C427   1.436       .  S
O15         Cu23   2.011   1_556  S
O15          C25   1.277       .  A
O16         Cu23   2.012       .  S
O16          C26   1.277       .  A
O17         Cu23   2.011       .  S
O17          C27   1.276       .  A
O18         Cu23   2.011   1_556  S
O18          C28   1.277       .  A
O19         Cu24   2.011   1_556  S
O19          C28   1.277       .  A
O20         Cu24   2.012       .  S
O20          C27   1.277       .  A
O21         Cu24   2.011       .  S
O21          C26   1.276       .  A
O22         Cu24   2.012   1_556  S
O22          C25   1.277       .  A
Cu23        Cu24   2.379       .  S
C25         C424   1.436       .  S
C26         C417   1.436       .  S
C27         C421   1.436       .  S
C28         C420   1.436       .  S
O29         Cu37   2.011       .  S
O29          C39   1.276       .  A
O30         Cu37   2.012   1_554  S
O30          C40   1.277   1_655  A
O31         Cu37   2.011   1_554  S
O31          C41   1.276       .  A
O32         Cu37   2.012       .  S
O32          C42   1.277   1_655  A
O33         Cu38   2.011       .  S
O33          C42   1.277       .  A
O34         Cu38   2.012   1_554  S
O34          C41   1.277   1_455  A
O35         Cu38   2.012   1_554  S
O35          C40   1.277       .  A
O36         Cu38   2.012       .  S
O36          C39   1.277   1_455  A
Cu37        Cu38   2.379   1_655  S
C39         C415   1.436       .  S
C40         C411   1.436       .  S
C41         C410   1.436       .  S
C42         C414   1.436       .  S
N43          N44   1.323       .  A
N43          C47   1.346       .  A
N43         Cu51   2.080       .  S
N44          C45   1.345       .  A
N44         Cu50   2.067       .  S
C45          C46   1.379       .  A
C45          H48   1.082       .  S
C46         C408   1.438       .  S
C46          C47   1.381       .  A
C47          H49   1.082       .  S
Cu50         N53   2.066       .  S
Cu51         N61   2.080       .  S
Cu52         N54   2.067       .  S
Cu52         N60   2.068       .  S
N53          N54   1.321       .  A
N53          C57   1.343       .  A
N54          C55   1.343       .  A
C55          C56   1.384       .  A
C55          H58   1.082       .  S
C56          C57   1.384       .  A
C56          C91   1.487       .  S
C57          H59   1.082       .  S
N60          N61   1.323       .  A
N60          C64   1.345       .  A
N61          C62   1.346       .  A
C62          C63   1.381       .  A
C62          H65   1.082       .  S
C63         C425   1.438       .  S
C63          C64   1.379       .  A
C64          H66   1.082       .  S
N67          N68   1.323       .  A
N67          C71   1.346       .  A
N67         Cu75   2.080       .  S
N68          C69   1.345       .  A
N68         Cu74   2.068       .  S
C69          C70   1.379       .  A
C69          H72   1.082       .  S
C70         C431   1.438       .  S
C70          C71   1.381       .  A
C71          H73   1.082       .  S
Cu74         N77   2.066       .  S
Cu75         N85   2.080       .  S
Cu76         N78   2.067       .  S
Cu76         N84   2.068       .  S
N77          N78   1.321       .  A
N77          C81   1.343       .  A
N78          C79   1.343       .  A
C79          C80   1.384       .  A
C79          H82   1.082       .  S
C80          C81   1.384       .  A
C80          C94   1.488       .  S
C81          H83   1.082       .  S
N84          N85   1.323       .  A
N84          C88   1.345       .  A
N85          C86   1.346       .  A
C86          C87   1.381       .  A
C86          H89   1.082       .  S
C87         C406   1.438       .  S
C87          C88   1.379       .  A
C88          H90   1.082       .  S
C91          C92   1.417   1_545  A
C91          C96   1.417   1_655  A
C92          C93   1.417       .  A
C92         C110   1.487       .  S
C93          C94   1.417   1_655  A
C93         C182   1.487       .  S
C94          C95   1.417   1_565  A
C95          C96   1.417       .  A
C95         C158   1.487       .  S
C96         C134   1.487       .  S
N97          N98   1.323       .  A
N97         C101   1.346       .  A
N97        Cu105   2.080       .  S
N98          C99   1.345       .  A
N98        Cu104   2.067       .  S
C99         C100   1.379       .  A
C99         H102   1.082       .  S
C100        C404   1.438       .  S
C100        C101   1.381       .  A
C101        H103   1.082       .  S
Cu104       N107   2.066       .  S
Cu105       N115   2.080       .  S
Cu106       N108   2.066       .  S
Cu106       N114   2.067       .  S
N107        N108   1.321       .  A
N107        C111   1.343       .  A
N108        C109   1.343       .  A
C109        C110   1.384       .  A
C109        H112   1.082       .  S
C110        C111   1.384       .  A
C111        H113   1.082       .  S
N114        N115   1.323       .  A
N114        C118   1.345       .  A
N115        C116   1.346       .  A
C116        C117   1.381       .  A
C116        H119   1.082       .  S
C117        C422   1.438       .  S
C117        C118   1.379       .  A
C118        H120   1.082       .  S
N121        N122   1.323       .  A
N121        C125   1.346       .  A
N121       Cu129   2.080       .  S
N122        C123   1.345       .  A
N122       Cu128   2.067       .  S
C123        C124   1.379       .  A
C123        H126   1.082       .  S
C124        C401   1.438       .  S
C124        C125   1.381       .  A
C125        H127   1.082       .  S
Cu128       N131   2.065       .  S
Cu129       N139   2.080       .  S
Cu130       N132   2.067       .  S
Cu130       N138   2.069       .  S
N131        N132   1.321       .  A
N131        C135   1.343       .  A
N132        C133   1.343       .  A
C133        C134   1.384       .  A
C133        H136   1.082       .  S
C134        C135   1.384       .  A
C135        H137   1.082       .  S
N138        N139   1.323       .  A
N138        C142   1.345       .  A
N139        C140   1.346       .  A
C140        C141   1.381       .  A
C140        H143   1.082       .  S
C141        C412   1.438       .  S
C141        C142   1.379       .  A
C142        H144   1.082       .  S
N145        N146   1.323       .  A
N145        C149   1.346       .  A
N145       Cu153   2.080       .  S
N146        C147   1.345       .  A
N146       Cu152   2.067       .  S
C147        C148   1.379       .  A
C147        H150   1.082       .  S
C148        C418   1.438       .  S
C148        C149   1.381       .  A
C149        H151   1.082       .  S
Cu152       N155   2.066       .  S
Cu153       N163   2.080       .  S
Cu154       N156   2.067       .  S
Cu154       N162   2.068       .  S
N155        N156   1.321       .  A
N155        C159   1.343       .  A
N156        C157   1.343       .  A
C157        C158   1.384       .  A
C157        H160   1.082       .  S
C158        C159   1.384       .  A
C159        H161   1.082       .  S
N162        N163   1.323       .  A
N162        C166   1.345       .  A
N163        C164   1.346       .  A
C164        C165   1.381       .  A
C164        H167   1.082       .  S
C165        C399   1.438       .  S
C165        C166   1.379       .  A
C166        H168   1.082       .  S
N169        N170   1.323       .  A
N169        C173   1.346       .  A
N169       Cu177   2.080       .  S
N170        C171   1.345       .  A
N170       Cu176   2.067       .  S
C171        C172   1.379       .  A
C171        H174   1.082       .  S
C172        C409   1.438       .  S
C172        C173   1.381       .  A
C173        H175   1.082       .  S
Cu176       N179   2.066       .  S
Cu177       N187   2.080       .  S
Cu178       N180   2.067       .  S
Cu178       N186   2.068       .  S
N179        N180   1.321       .  A
N179        C183   1.343       .  A
N180        C181   1.343       .  A
C181        C182   1.384       .  A
C181        H184   1.082       .  S
C182        C183   1.384       .  A
C183        H185   1.082       .  S
N186        N187   1.323       .  A
N186        C190   1.345       .  A
N187        C188   1.346       .  A
C188        C189   1.381       .  A
C188        H191   1.082       .  S
C189        C397   1.438       .  S
C189        C190   1.379       .  A
C190        H192   1.082       .  S
N193        N194   1.323       .  A
N193        C197   1.346       .  A
N193       Cu201   2.080       .  S
N194        C195   1.345       .  A
N194       Cu200   2.067       .  S
C195        C196   1.379       .  A
C195        H198   1.082       .  S
C196        C395   1.438       .  S
C196        C197   1.381       .  A
C197        H199   1.082       .  S
Cu200       N203   2.066       .  S
Cu201       N211   2.080       .  S
Cu202       N204   2.067       .  S
Cu202       N210   2.068       .  S
N203        N204   1.321       .  A
N203        C207   1.343       .  A
N204        C205   1.343       .  A
C205        C206   1.384       .  A
C205        H208   1.082       .  S
C206        C207   1.384       .  A
C206        C241   1.487       .  S
C207        H209   1.082       .  S
N210        N211   1.323       .  A
N210        C214   1.345       .  A
N211        C212   1.346       .  A
C212        C213   1.381       .  A
C212        H215   1.082       .  S
C213        C428   1.438       .  S
C213        C214   1.379       .  A
C214        H216   1.082       .  S
N217        N218   1.323       .  A
N217        C221   1.346       .  A
N217       Cu225   2.080       .  S
N218        C219   1.345       .  A
N218       Cu224   2.068       .  S
C219        C220   1.379       .  A
C219        H222   1.082       .  S
C220        C430   1.438       .  S
C220        C221   1.381       .  A
C221        H223   1.082       .  S
Cu224       N227   2.066       .  S
Cu225       N235   2.080       .  S
Cu226       N228   2.067       .  S
Cu226       N234   2.068       .  S
N227        N228   1.321       .  A
N227        C231   1.343       .  A
N228        C229   1.343       .  A
C229        C230   1.384       .  A
C229        H232   1.082       .  S
C230        C231   1.384       .  A
C230        C244   1.488       .  S
C231        H233   1.082       .  S
N234        N235   1.323       .  A
N234        C238   1.345       .  A
N235        C236   1.346       .  A
C236        C237   1.381       .  A
C236        H239   1.082       .  S
C237        C393   1.438       .  S
C237        C238   1.379       .  A
C238        H240   1.082       .  S
C241        C242   1.417   1_545  A
C241        C246   1.417   1_655  A
C242        C243   1.417       .  A
C242        C308   1.487       .  S
C243        C244   1.417   1_655  A
C243        C332   1.487       .  S
C244        C245   1.417   1_565  A
C245        C246   1.417       .  A
C245        C260   1.487       .  S
C246        C284   1.487       .  S
N247        N248   1.323       .  A
N247        C251   1.346       .  A
N247       Cu255   2.080       .  S
N248        C249   1.345       .  A
N248       Cu254   2.068       .  S
C249        C250   1.379       .  A
C249        H252   1.082       .  S
C250        C419   1.438       .  S
C250        C251   1.381       .  A
C251        H253   1.082       .  S
Cu254       N257   2.066       .  S
Cu255       N265   2.080       .  S
Cu256       N258   2.067       .  S
Cu256       N264   2.068       .  S
N257        N258   1.321       .  A
N257        C261   1.343       .  A
N258        C259   1.343       .  A
C259        C260   1.384       .  A
C259        H262   1.082       .  S
C260        C261   1.384       .  A
C261        H263   1.082       .  S
N264        N265   1.323       .  A
N264        C268   1.345       .  A
N265        C266   1.346       .  A
C266        C267   1.381       .  A
C266        H269   1.082       .  S
C267        C391   1.438       .  S
C267        C268   1.379       .  A
C268        H270   1.082       .  S
N271        N272   1.323       .  A
N271        C275   1.346       .  A
N271       Cu279   2.080       .  S
N272        C273   1.345       .  A
N272       Cu278   2.067       .  S
C273        C274   1.379       .  A
C273        H276   1.082       .  S
C274        C390   1.438       .  S
C274        C275   1.381       .  A
C275        H277   1.082       .  S
Cu278       N281   2.066       .  S
Cu279       N289   2.080       .  S
Cu280       N282   2.067       .  S
Cu280       N288   2.068       .  S
N281        N282   1.321       .  A
N281        C285   1.343       .  A
N282        C283   1.343       .  A
C283        C284   1.384       .  A
C283        H286   1.082       .  S
C284        C285   1.384       .  A
C285        H287   1.082       .  S
N288        N289   1.323       .  A
N288        C292   1.345       .  A
N289        C290   1.346       .  A
C290        C291   1.381       .  A
C290        H293   1.082       .  S
C291        C413   1.438       .  S
C291        C292   1.379       .  A
C292        H294   1.082       .  S
N295        N296   1.323       .  A
N295        C299   1.346       .  A
N295       Cu303   2.080       .  S
N296        C297   1.345       .  A
N296       Cu302   2.067       .  S
C297        C298   1.379       .  A
C297        H300   1.082       .  S
C298        C388   1.438       .  S
C298        C299   1.381       .  A
C299        H301   1.082       .  S
Cu302       N305   2.066       .  S
Cu303       N313   2.080       .  S
Cu304       N306   2.066       .  S
Cu304       N312   2.068       .  S
N305        N306   1.321       .  A
N305        C309   1.343       .  A
N306        C307   1.343       .  A
C307        C308   1.384       .  A
C307        H310   1.082       .  S
C308        C309   1.384       .  A
C309        H311   1.082       .  S
N312        N313   1.323       .  A
N312        C316   1.345       .  A
N313        C314   1.346       .  A
C314        C315   1.381       .  A
C314        H317   1.082       .  S
C315        C423   1.438       .  S
C315        C316   1.379       .  A
C316        H318   1.082       .  S
N319        N320   1.323       .  A
N319        C323   1.346       .  A
N319       Cu327   2.080       .  S
N320        C321   1.345       .  A
N320       Cu326   2.067       .  S
C321        C322   1.379       .  A
C321        H324   1.082       .  S
C322        C416   1.438       .  S
C322        C323   1.381       .  A
C323        H325   1.082       .  S
Cu326       N329   2.066       .  S
Cu327       N337   2.080       .  S
Cu328       N330   2.067       .  S
Cu328       N336   2.068       .  S
N329        N330   1.321       .  A
N329        C333   1.343       .  A
N330        C331   1.343       .  A
C331        C332   1.384       .  A
C331        H334   1.082       .  S
C332        C333   1.384       .  A
C333        H335   1.082       .  S
N336        N337   1.323       .  A
N336        C340   1.345       .  A
N337        C338   1.346       .  A
C338        C339   1.381       .  A
C338        H341   1.082       .  S
C339        C385   1.438       .  S
C339        C340   1.379       .  A
C340        H342   1.082       .  S
O343       Cu351   2.012       .  S
O343        C353   1.277   1_545  A
O344       Cu351   2.011       .  S
O344        C354   1.277       .  A
O345       Cu351   2.012       .  S
O345        C355   1.277   1_545  A
O346       Cu351   2.012       .  S
O346        C356   1.277       .  A
O347       Cu352   2.011       .  S
O347        C356   1.277   1_565  A
O348       Cu352   2.011       .  S
O348        C355   1.276       .  A
O349       Cu352   2.012       .  S
O349        C354   1.277   1_565  A
O350       Cu352   2.011       .  S
O350        C353   1.276       .  A
Cu351      Cu352   2.379   1_545  S
C353        C403   1.436       .  S
C354        C392   1.436       .  S
C355        C387   1.436       .  S
C356        C400   1.436       .  S
O357       Cu365   2.011       .  S
O357        C367   1.276       .  A
O358       Cu365   2.011   1_554  S
O358        C368   1.277   1_545  A
O359       Cu365   2.011   1_554  S
O359        C369   1.276       .  A
O360       Cu365   2.011       .  S
O360        C370   1.277   1_545  A
O361       Cu366   2.011       .  S
O361        C370   1.277       .  A
O362       Cu366   2.012   1_554  S
O362        C369   1.277   1_565  A
O363       Cu366   2.011   1_554  S
O363        C368   1.277       .  A
O364       Cu366   2.012       .  S
O364        C367   1.277   1_565  A
Cu365      Cu366   2.379   1_545  S
C367        C396   1.436       .  S
C368        C405   1.436       .  S
C369        C407   1.436       .  S
C370        C394   1.436       .  S
O371       Cu379   2.012       .  S
O371        C381   1.277       .  A
O372       Cu379   2.011       .  S
O372        C382   1.277       .  A
O373       Cu379   2.011       .  S
O373        C383   1.277       .  A
O374       Cu379   2.011       .  S
O374        C384   1.277       .  A
O375       Cu380   2.011       .  S
O375        C384   1.277       .  A
O376       Cu380   2.011       .  S
O376        C383   1.276       .  A
O377       Cu380   2.011       .  S
O377        C382   1.277       .  A
O378       Cu380   2.011       .  S
O378        C381   1.276       .  A
Cu379      Cu380   2.379       .  S
C381        C402   1.436       .  S
C382        C386   1.436       .  S
C383        C389   1.436       .  S
C384        C398   1.436       .  S
C385        C386   1.207       .  T
C387        C388   1.206       .  T
C389        C390   1.206       .  T
C391        C392   1.207       .  T
C393        C394   1.207       .  T
C395        C396   1.206       .  T
C397        C398   1.207       .  T
C399        C400   1.207       .  T
C401        C402   1.206       .  T
C403        C404   1.207       .  T
C405        C406   1.206       .  T
C407        C408   1.206       .  T
C409        C410   1.207       .  T
C411        C412   1.207       .  T
C413        C414   1.207       .  T
C415        C416   1.206       .  T
C417        C418   1.206       .  T
C419        C420   1.206       .  T
C421        C422   1.206       .  T
C423        C424   1.207       .  T
C425        C426   1.207       .  T
C427        C428   1.207       .  T
C429        C430   1.206       .  T
C431        C432   1.206       .  T
