geometry optimzed in LAMMPS
_audit_creation_date              2020-11-30 
_audit_creation_method            'lammps2cif' 
_symmetry_space_group_name_H-M    'P1' 
_symmetry_Int_Tables_number       1 
_symmetry_cell_setting            triclinic 
loop_ 
_symmetry_equiv_pos_as_xyz 
  x,y,z 
_cell_length_a                    28.34291119 
_cell_length_b                    28.241874733177255 
_cell_length_c                    28.11497259975386 
_cell_angle_alpha                 90.93304967749405 
_cell_angle_beta                  89.66779213692834 
_cell_angle_gamma                 90.33836294080268 
loop_ 
_atom_site_label 
_atom_site_type_symbol 
_atom_site_fract_x 
_atom_site_fract_y 
_atom_site_fract_z 
_atom_site_charge 
C1          C  0.83800992  0.84579281  0.83687214     0.85400
C2          C  0.86888370  0.81408345  0.86777223    -0.54800
C3          C  0.89980634  0.83810391  0.89655683     0.08300
C4          C  0.89723114  0.89177590  0.89221639     0.19300
C5          C  0.81443399  0.88014290  0.87265896    -0.55600
C6          C  0.84547454  0.90269201  0.90225610     0.08400
C7          C  0.87234592  0.87831164  0.81031274    -0.55100
C8          C  0.90375392  0.90110165  0.83926035     0.09000
H9          H  0.86640150  0.77566717  0.86695025     0.13500
H10         H  0.92273985  0.91178328  0.91461889    -0.00700
H11         H  0.77706815  0.88713890  0.87570735     0.13800
H12         H  0.87112708  0.88450051  0.77240384     0.13600
N13         N  0.77656250  0.91746562  0.43146471    -0.07200
N14         N  0.74704870  0.92254716  0.46743150    -0.59300
N15         N  0.80495393  0.96251710  0.32490056    -0.06900
N16         N  0.79318131  0.99840152  0.29681529    -0.61500
N17         N  0.77241976  0.92906770  0.32177905    -0.06500
N18         N  0.73907675  0.94118480  0.29114733    -0.59300
N19         N  0.81040814  0.94944168  0.43430018    -0.06200
N20         N  0.80469362  0.97663287  0.47218687    -0.61800
C21         C  0.76517045  0.95935094  0.49278675     0.95000
C22         C  0.75197562  0.98460958  0.27526833     0.94700
N23         N  0.95135948  0.92035818  0.32342501    -0.07400
N24         N  0.98209802  0.92866129  0.28939007    -0.59900
N25         N  0.92354205  0.95250617  0.43467443    -0.05500
N26         N  0.93644768  0.98540108  0.46672105    -0.61200
N27         N  0.95533036  0.91852588  0.43281952    -0.07400
N28         N  0.99014672  0.92829041  0.46341930    -0.60200
N29         N  0.91924359  0.95390795  0.32535290    -0.05200
N30         N  0.92756222  0.98572429  0.29280736    -0.61200
Mn31       Mn  0.86452384  0.95581634  0.37977602     1.18400
C32         C  0.96641142  0.96917666  0.27042891     0.97000
C33         C  0.97809283  0.97015268  0.48500650     0.97700
N34         N  0.77455114  0.81772818  0.31101732    -0.07400
N35         N  0.74672543  0.81677581  0.27371979    -0.63800
N36         N  0.80070631  0.77134320  0.41780803    -0.06200
N37         N  0.78968779  0.73681269  0.44769691    -0.64400
N38         N  0.76887786  0.80509748  0.42070434    -0.07000
N39         N  0.73571405  0.79382190  0.45238488    -0.64000
N40         N  0.80631999  0.78404525  0.30758558    -0.05800
N41         N  0.80037508  0.75935813  0.26783123    -0.64700
Mn42       Mn  0.77200652  0.86724819  0.37139320     1.10700
C43         C  0.76334680  0.78043389  0.24675885     0.98300
C44         C  0.74896779  0.75106295  0.46936336     0.98300
N45         N  0.94705133  0.80351449  0.42279584    -0.07000
N46         N  0.98111097  0.78852932  0.45007040    -0.62300
N47         N  0.91965070  0.77540444  0.31015308    -0.06300
N48         N  0.93201386  0.74156392  0.27899524    -0.59100
N49         N  0.95434429  0.80643583  0.31507374    -0.07600
N50         N  0.99089871  0.79340031  0.28793091    -0.61900
N51         N  0.91371890  0.77089065  0.41858913    -0.06600
N52         N  0.92460881  0.73318043  0.44313666    -0.59100
Mn53       Mn  0.95269382  0.86244257  0.37381041     1.20200
Mn54       Mn  0.85962987  0.77450245  0.36335258     1.10100
Cl55       Cl  0.86233940  0.86501814  0.37214803    -0.87100
C56         C  0.96660958  0.74491156  0.46240714     0.95300
C57         C  0.97650889  0.75321089  0.26470528     0.95100
N58         N  0.96615935  0.42683537  0.92418627    -0.07200
N59         N  0.00038003  0.45746736  0.93549400    -0.59300
N60         N  0.92899872  0.31746116  0.94993728    -0.06900
N61         N  0.93981557  0.28633183  0.98223930    -0.61500
N62         N  0.96177565  0.31846569  0.91654941    -0.06500
N63         N  0.99544493  0.28809550  0.92550373    -0.59300
N64         N  0.93369138  0.42632235  0.95796025    -0.06200
N65         N  0.94562946  0.45676417  0.99268037    -0.61800
C66         C  0.98735862  0.47639652  0.97835190     0.95000
C67         C  0.98094712  0.26799472  0.96621279     0.94700
N68         N  0.78204678  0.31718780  0.92228521    -0.07400
N69         N  0.74763490  0.28665635  0.93289197    -0.59900
N70         N  0.82047189  0.42614454  0.95516441    -0.05500
N71         N  0.81406316  0.45944876  0.98769778    -0.61200
N72         N  0.78688391  0.42707778  0.92298371    -0.07400
N73         N  0.75684748  0.46125659  0.93336160    -0.60200
N74         N  0.81447632  0.31720531  0.95583196    -0.05200
N75         N  0.80180184  0.28721482  0.98990902    -0.61200
Mn76       Mn  0.87429956  0.37160061  0.95569556     1.18400
C77         C  0.76025682  0.26746808  0.97505730     0.97000
C78         C  0.77436381  0.48110492  0.97381871     0.97700
N79         N  0.96409577  0.32056801  0.80298901    -0.07400
N80         N  0.99767499  0.29025192  0.78981280    -0.63800
N81         N  0.92761956  0.42961755  0.77880968    -0.06200
N82         N  0.93566642  0.46359391  0.74842765    -0.64400
N83         N  0.96072788  0.42898288  0.81138704    -0.07000
N84         N  0.99212092  0.46248330  0.80397652    -0.64000
N85         N  0.93033185  0.32062329  0.77096721    -0.05800
N86         N  0.94014281  0.28982039  0.73605348    -0.64700
Mn87       Mn  0.96404443  0.37365253  0.86367544     1.10700
C88         C  0.98207698  0.27049144  0.74830187     0.98300
C89         C  0.97538258  0.48396970  0.76523502     0.98300
N90         N  0.78169799  0.42852486  0.80757299    -0.07000
N91         N  0.74668000  0.45693167  0.79494577    -0.62300
N92         N  0.81839793  0.32135629  0.77416804    -0.06300
N93         N  0.80940214  0.29093289  0.73947235    -0.59100
N94         N  0.78522639  0.31991010  0.80710340    -0.07600
N95         N  0.75285341  0.28830396  0.79521211    -0.61900
N96         N  0.81566841  0.42996638  0.77536162    -0.06600
N97         N  0.80460890  0.45995057  0.74120763    -0.59100
Mn98       Mn  0.78283344  0.37312073  0.86520064     1.20200
Mn99       Mn  0.87312861  0.37543356  0.77414144     1.10100
Cl100      Cl  0.87345464  0.37334712  0.86477412    -0.87100
C101        C  0.76166315  0.47731884  0.75385456     0.95300
C102        C  0.76857467  0.27049790  0.75304308     0.95100
N103        N  0.42090804  0.78254753  0.91347960    -0.07200
N104        N  0.45429434  0.75072614  0.91684160    -0.59300
N105        N  0.31616157  0.81496886  0.95527331    -0.06900
N106        N  0.28874880  0.80080240  0.99109612    -0.61500
N107        N  0.31229112  0.78487991  0.91908805    -0.06500
N108        N  0.28171826  0.75056434  0.92969844    -0.59300
N109        N  0.42434397  0.81434332  0.94811468    -0.06200
N110        N  0.46004163  0.80458627  0.97589248    -0.61800
C111        C  0.47866834  0.76525939  0.95552766     0.95000
C112        C  0.26654987  0.76090749  0.97464430     0.94700
N113        N  0.32289916  0.96287844  0.92373453    -0.07400
N114        N  0.29059798  0.99497164  0.93318513    -0.59900
N115        N  0.43099449  0.92803075  0.95962437    -0.05500
N116        N  0.46424175  0.93613360  0.99230813    -0.61200
N117        N  0.43175526  0.96211928  0.92817286    -0.07400
N118        N  0.46558539  0.99335456  0.93870700    -0.60200
N119        N  0.32189916  0.92933984  0.95591553    -0.05200
N120        N  0.28889849  0.93798029  0.98791624    -0.61200
Mn121      Mn  0.37339808  0.87169681  0.95610074     1.18400
C122        C  0.26969435  0.97857701  0.97284807     0.97000
C123        C  0.48604128  0.97709387  0.97881613     0.97700
N124        N  0.31291365  0.79594680  0.80471977    -0.07400
N125        N  0.27654971  0.76900895  0.79339606    -0.63800
N126        N  0.42586619  0.81626519  0.77115406    -0.06200
N127        N  0.45623272  0.80359629  0.73699645    -0.64400
N128        N  0.42013290  0.78129635  0.80109630    -0.07000
N129        N  0.44594834  0.74426126  0.78738595    -0.64000
N130        N  0.31795459  0.83007385  0.77371506    -0.05800
N131        N  0.28496663  0.82765735  0.74127910    -0.64700
Mn132      Mn  0.36596894  0.78509411  0.85959085     1.10700
C133        C  0.25919491  0.78997218  0.75439611     0.98300
C134        C  0.46898362  0.75857666  0.74757832     0.98300
N135        N  0.43495596  0.96042932  0.81779382    -0.07000
N136        N  0.47221836  0.98798427  0.81580543    -0.62300
N137        N  0.32629989  0.93990674  0.77373827    -0.06300
N138        N  0.29682356  0.95137741  0.73914993    -0.59100
N139        N  0.32603231  0.97257528  0.80770515    -0.07600
N140        N  0.29691555  0.00754670  0.79562236    -0.61900
N141        N  0.43535722  0.92906435  0.78276671    -0.06600
N142        N  0.47271413  0.93544081  0.75546780    -0.59100
Mn143      Mn  0.37827406  0.96577507  0.86936567     1.20200
Mn144      Mn  0.37689332  0.87891774  0.77430501     1.10100
Cl145      Cl  0.37330393  0.87537341  0.86497249    -0.87100
C146        C  0.49559087  0.97208810  0.77693385     0.95300
C147        C  0.27820973  0.99371914  0.75268463     0.95100
C148        C  0.39332105  0.31632928  0.90042365     0.85400
C149        C  0.43044993  0.34855719  0.87687823    -0.54800
C150        C  0.41168715  0.38523995  0.85243889     0.08300
C151        C  0.35757342  0.38638537  0.85322945     0.19300
C152        C  0.36386695  0.35099194  0.93112436    -0.55600
C153        C  0.34486871  0.38668745  0.90605272     0.08400
C154        C  0.36015148  0.30075208  0.86057728    -0.55100
C155        C  0.34269909  0.33724384  0.83519503     0.09000
H156        H  0.46814955  0.34206431  0.87817111     0.13500
H157        H  0.34193798  0.41595638  0.83316243    -0.00700
H158        H  0.35850809  0.34971062  0.96919142     0.13800
H159        H  0.35243435  0.26386340  0.85194262     0.13600
C160        C  0.40716123  0.82922891  0.38891537     0.85400
C161        C  0.37988451  0.86238783  0.42308249    -0.54800
C162        C  0.35389332  0.89559916  0.40039322     0.08300
C163        C  0.35810571  0.89394075  0.34616374     0.19300
C164        C  0.37056753  0.80962783  0.35381779    -0.55600
C165        C  0.34480486  0.84356500  0.33234829     0.08400
C166        C  0.43713772  0.86404425  0.35962311    -0.55100
C167        C  0.41098252  0.89618145  0.33576989     0.09000
H168        H  0.37996517  0.85912114  0.46152151     0.13500
H169        H  0.33674917  0.92106561  0.32803264    -0.00700
H170        H  0.36430463  0.77200746  0.34775286     0.13800
H171        H  0.47518489  0.86405592  0.35637854     0.13600
C172        C  0.91650271  0.39145395  0.33023749     0.85400
C173        C  0.88401458  0.42367101  0.36018958    -0.54800
C174        C  0.85209575  0.39972645  0.38765445     0.08300
C175        C  0.85555057  0.34547815  0.38213002     0.19300
C176        C  0.93871226  0.35748256  0.36471003    -0.55600
C177        C  0.90729000  0.33301808  0.39152885     0.08400
C178        C  0.88155807  0.36121189  0.30134363    -0.55100
C179        C  0.85046920  0.33712974  0.32874631     0.09000
H180        H  0.88590354  0.46207877  0.35949013     0.13500
H181        H  0.82992617  0.32517065  0.40355599    -0.00700
H182        H  0.97659399  0.35185204  0.36637361     0.13800
H183        H  0.87847997  0.36041136  0.26295298     0.13600
N184        N  0.21720882  0.07081571  0.67127985    -0.07200
N185        N  0.25313512  0.06359479  0.70085190    -0.59300
N186        N  0.17816246  0.02995680  0.56376955    -0.06900
N187        N  0.18849579  0.99624878  0.53238282    -0.61500
N188        N  0.20930243  0.06470738  0.56126740    -0.06500
N189        N  0.24092705  0.05542900  0.52802493    -0.59300
N190        N  0.18705252  0.03504566  0.67339553    -0.06200
N191        N  0.20261713  0.00316928  0.70403242    -0.61800
C192        C  0.24356868  0.02144812  0.72206829     0.95000
C193        C  0.22744956  0.01290363  0.50993536     0.94700
N194        N  0.02876875  0.05258011  0.57122028    -0.07400
N195        N  0.99410817  0.03995529  0.54178345    -0.59900
N196        N  0.07355967  0.03398069  0.68002012    -0.05500
N197        N  0.06841669  0.00522542  0.71613340    -0.61200
N198        N  0.03968780  0.06572545  0.68042108    -0.07400
N199        N  0.01091347  0.05890481  0.71660326    -0.60200
N200        N  0.06273784  0.02080844  0.56981633    -0.05200
N201        N  0.05094543  0.98589961  0.53922673    -0.61200
Mn202      Mn  0.12528911  0.02864420  0.62153178     1.18400
C203        C  0.00782365  0.99820446  0.52152502     0.97000
C204        C  0.02943349  0.02144361  0.73899843     0.97700
N205        N  0.20701096  0.17786116  0.55311378    -0.07400
N206        N  0.24089503  0.19049371  0.52284332    -0.63800
N207        N  0.17310712  0.21688827  0.65914154    -0.06200
N208        N  0.18279833  0.25488573  0.68517206    -0.64400
N209        N  0.20754115  0.18586278  0.66139344    -0.07000
N210        N  0.24152551  0.20248781  0.68873956    -0.64000
N211        N  0.17139169  0.20753843  0.55050427    -0.05800
N212        N  0.18043426  0.24013548  0.51796222    -0.64700
Mn213      Mn  0.21098796  0.12466786  0.61214193     1.10700
C214        C  0.22368148  0.22884630  0.50011886     0.98300
C215        C  0.22534836  0.24521146  0.70366223     0.98300
N216        N  0.02969616  0.17923488  0.67126864    -0.07000
N217        N  0.99650669  0.19335571  0.70201335    -0.62300
N218        N  0.05841979  0.19759041  0.55723218    -0.06300
N219        N  0.04625146  0.22495971  0.52198532    -0.59100
N220        N  0.02668902  0.16394956  0.56320316    -0.07600
N221        N  0.99217006  0.16780271  0.53242168    -0.61900
N222        N  0.06142774  0.21311047  0.66611197    -0.06600
N223        N  0.05082355  0.25011512  0.69389623    -0.59100
Mn224      Mn  0.03040697  0.11514535  0.62199333     1.20200
Mn225      Mn  0.11591533  0.20929253  0.60797136     1.10100
Cl226      Cl  0.12076548  0.11936272  0.61600898    -0.87100
C227        C  0.01042783  0.23744450  0.71666134     0.95300
C228        C  0.00547422  0.20534875  0.50655297     0.95100
N229        N  0.06435960  0.67717187  0.21022679    -0.07200
N230        N  0.05158158  0.70697985  0.24514599    -0.59300
N231        N  0.04198254  0.56528810  0.17343071    -0.06900
N232        N  0.01653671  0.52684066  0.18028015    -0.61500
N233        N  0.07525304  0.56873801  0.20573385    -0.06500
N234        N  0.07353317  0.53313647  0.23494171    -0.59300
N235        N  0.03070554  0.67400705  0.17812649    -0.06200
N236        N  0.99426991  0.70086011  0.19150069    -0.61800
C237        C  0.00778182  0.72210284  0.23313532     0.95000
C238        C  0.03721312  0.50712350  0.21837857     0.94700
N239        N  0.06885780  0.56399174  0.02662281    -0.07400
N240        N  0.05767682  0.53264899  0.99243556    -0.59900
N241        N  0.03607765  0.67310586  0.06218214    -0.05500
N242        N  0.00358291  0.70449235  0.05150863    -0.61200
N243        N  0.06990925  0.67307002  0.02972886    -0.07400
N244        N  0.06124162  0.70423033  0.99678586    -0.60200
N245        N  0.03593127  0.56386623  0.05998052    -0.05200
N246        N  0.00230856  0.53249130  0.04897781    -0.61200
Mn247      Mn  0.03488090  0.61922057  0.11850603     1.18400
C248        C  0.01606557  0.51275358  0.00675179     0.97000
C249        C  0.01999768  0.72354023  0.01063297     0.97700
N250        N  0.18515412  0.57311836  0.21043018    -0.07400
N251        N  0.19436779  0.54042726  0.24275384    -0.63800
N252        N  0.20996233  0.68400674  0.17354146    -0.06200
N253        N  0.23710624  0.72138104  0.18158268    -0.64400
N254        N  0.17569654  0.68273714  0.20519661    -0.07000
N255        N  0.17832977  0.71889820  0.23483110    -0.64000
N256        N  0.21845322  0.57333313  0.17756333    -0.05800
N257        N  0.25083007  0.54080534  0.18731666    -0.64700
Mn258      Mn  0.12523203  0.62573972  0.20875011     1.10700
C259        C  0.23558047  0.52009184  0.22822941     0.98300
C260        C  0.21666163  0.74274032  0.22001380     0.98300
N261        N  0.18381466  0.67727243  0.02534054    -0.07000
N262        N  0.19589387  0.70585558  0.98991667    -0.62300
N263        N  0.21635951  0.57178908  0.06317095    -0.06300
N264        N  0.25030479  0.54145538  0.05344406    -0.59100
N265        N  0.18313332  0.56880342  0.03057796    -0.07600
N266        N  0.19372518  0.53631898  0.99821874    -0.61900
N267        N  0.21547000  0.68057931  0.05951185    -0.06600
N268        N  0.24872000  0.71197100  0.04807610    -0.59100
Mn269      Mn  0.12636348  0.62064122  0.02721217     1.20200
Mn270      Mn  0.21633657  0.62754695  0.11866587     1.10100
Cl271      Cl  0.12567702  0.62345091  0.11809605    -0.87100
C272        C  0.23618141  0.72812118  0.00465206     0.95300
C273        C  0.23550395  0.51964802  0.01310034     0.95100
N274        N  0.68961090  0.06362932  0.03548137    -0.07200
N275        N  0.72846584  0.05758187  0.01023278    -0.59300
N276        N  0.57820608  0.02217481  0.05658517    -0.06900
N277        N  0.54496701  0.98972240  0.04723531    -0.61500
N278        N  0.58014264  0.05329084  0.02223545    -0.06500
N279        N  0.54806741  0.04250831  0.98927682    -0.59300
N280        N  0.68751065  0.03285319  0.07013812    -0.06200
N281        N  0.72500404  0.00582521  0.06947239    -0.61800
C282        C  0.75044902  0.02172397  0.03221862     0.95000
C283        C  0.52607592  0.00261204  0.00494571     0.94700
N284        N  0.56434869  0.06547008  0.20042060    -0.07400
N285        N  0.52719335  0.05808463  0.22764636    -0.59900
N286        N  0.67650128  0.03036421  0.18282748    -0.05500
N287        N  0.70572234  0.99713813  0.19824194    -0.61200
N288        N  0.67360877  0.06519420  0.21443777    -0.07400
N289        N  0.70153799  0.05621504  0.25135809    -0.60200
N290        N  0.56820191  0.03162646  0.16800534    -0.05200
N291        N  0.53366557  0.00082014  0.17220766    -0.61200
Mn292      Mn  0.62774221  0.02795657  0.11914343     1.18400
C293        C  0.50811697  0.01785747  0.20933190     0.97000
C294        C  0.72224391  0.01370469  0.24086538     0.97700
N295        N  0.57533082  0.16415025  0.02140733    -0.07400
N296        N  0.54036477  0.16388706  0.99098747    -0.63800
N297        N  0.67909576  0.21073258  0.05662773    -0.06200
N298        N  0.70704070  0.24721341  0.04584228    -0.64400
N299        N  0.68312837  0.17702864  0.02386333    -0.07000
N300        N  0.71324534  0.19077982  0.99001282    -0.64000
N301        N  0.57023923  0.19834382  0.05332843    -0.05800
N302        N  0.53149937  0.22220988  0.04524938    -0.64700
Mn303      Mn  0.63262779  0.11417252  0.02428605     1.10700
C304        C  0.51314567  0.19986016  0.00670160     0.98300
C305        C  0.72889463  0.23450181  0.00434153     0.98300
N306        N  0.66853655  0.17835164  0.20473605    -0.07000
N307        N  0.69717416  0.19033811  0.23935477    -0.62300
N308        N  0.56204680  0.20937997  0.16660692    -0.06300
N309        N  0.53175305  0.24428352  0.17577234    -0.59100
N310        N  0.56174741  0.17909655  0.20186381    -0.07600
N311        N  0.53184446  0.19374057  0.23568155    -0.61900
N312        N  0.66962243  0.21009359  0.17086041    -0.06600
N313        N  0.69921297  0.24440095  0.18183264    -0.59100
Mn314      Mn  0.61710700  0.12185930  0.20638145     1.20200
Mn315      Mn  0.62028776  0.20817733  0.11162951     1.10100
Cl316      Cl  0.62483738  0.11821450  0.11543265    -0.87100
C317        C  0.71577187  0.23145853  0.22449989     0.95300
C318        C  0.51238818  0.23406067  0.21878374     0.95100
C319        C  0.58876455  0.60088889  0.14674089     0.85400
C320        C  0.61748004  0.64141361  0.16870329    -0.54800
C321        C  0.64275945  0.66666867  0.13645929     0.08300
C322        C  0.63799609  0.64913803  0.08506452     0.19300
C323        C  0.55897892  0.62332975  0.10771104    -0.55600
C324        C  0.58489513  0.64869159  0.07582069     0.08400
C325        C  0.62482239  0.57126452  0.11778040    -0.55100
C326        C  0.65054526  0.59673311  0.08584026     0.09000
H327        H  0.61858350  0.64889280  0.20672020     0.13500
H328        H  0.65933598  0.67020617  0.05975319    -0.00700
H329        H  0.52095333  0.61970396  0.10519059     0.13800
H330        H  0.62889018  0.53322120  0.12051893     0.13600
C331        C  0.14922455  0.66544743  0.63917357     0.85400
C332        C  0.11694934  0.64085964  0.67500973    -0.54800
C333        C  0.08855970  0.60717185  0.65512929     0.08300
C334        C  0.09638892  0.59902516  0.60159212     0.19300
C335        C  0.17718425  0.62390261  0.61661675    -0.55600
C336        C  0.14928754  0.58963574  0.59679713     0.08400
C337        C  0.11754122  0.68229855  0.59938193    -0.55100
C338        C  0.08956976  0.64771603  0.58035937     0.09000
H339        H  0.11738276  0.64856614  0.71300138     0.13500
H340        H  0.07396006  0.57093581  0.58511942    -0.00700
H341        H  0.21517351  0.62051873  0.61540810     0.13800
H342        H  0.11656220  0.71883345  0.58782986     0.13600
N343        N  0.27361126  0.31102516  0.41618821    -0.07200
N344        N  0.23835272  0.28196175  0.42818470    -0.59300
N345        N  0.30807219  0.41747497  0.45336227    -0.06900
N346        N  0.29519291  0.44529783  0.48925228    -0.61500
N347        N  0.27652410  0.41915209  0.41913170    -0.06500
N348        N  0.24196024  0.44799809  0.43111266    -0.59300
N349        N  0.30712943  0.30899885  0.44846298    -0.06200
N350        N  0.29578222  0.27807646  0.48174734    -0.61800
C351        C  0.25296591  0.26083449  0.46883503     0.95000
C352        C  0.25413957  0.46449588  0.47465061     0.94700
N353        N  0.45719021  0.41786864  0.42661372    -0.07400
N354        N  0.49242550  0.44517791  0.44217602    -0.59900
N355        N  0.41948854  0.30837693  0.44697565    -0.05500
N356        N  0.42779552  0.27264761  0.47538636    -0.61200
N357        N  0.45233384  0.31047733  0.41384087    -0.07400
N358        N  0.48340069  0.27669324  0.41875158    -0.60200
N359        N  0.42263096  0.41747580  0.45822221    -0.05200
N360        N  0.43362339  0.44520328  0.49524515    -0.61200
Mn361      Mn  0.36440350  0.36330496  0.45255981     1.18400
C362        C  0.47718432  0.46268626  0.48480284     0.97000
C363        C  0.46747085  0.25300651  0.45677822     0.97700
N364        N  0.27791189  0.42636741  0.30403769    -0.07400
N365        N  0.24529397  0.45866845  0.29425215    -0.63800
N366        N  0.31512016  0.31897095  0.26797749    -0.06200
N367        N  0.30814502  0.28707621  0.23399823    -0.64400
N368        N  0.28160466  0.31636933  0.30061029    -0.07000
N369        N  0.25136915  0.28237540  0.28956357    -0.64000
N370        N  0.31221762  0.42819953  0.27209391    -0.05800
N371        N  0.30314799  0.46150855  0.24040640    -0.64700
Mn372      Mn  0.27640435  0.36819311  0.35968377     1.10700
C373        C  0.26131794  0.48083372  0.25442678     0.98300
C374        C  0.26886880  0.26418489  0.24845391     0.98300
N375        N  0.45915404  0.31588959  0.30238049    -0.07000
N376        N  0.49247636  0.28442388  0.29175443    -0.62300
N377        N  0.42618525  0.42758859  0.27875384    -0.06300
N378        N  0.43802037  0.46141335  0.24909658    -0.59100
N379        N  0.45761658  0.42476411  0.31292077    -0.07600
N380        N  0.49139561  0.45631065  0.30718296    -0.61900
N381        N  0.42874351  0.31856958  0.26726235    -0.06600
N382        N  0.44178563  0.28946520  0.23177271    -0.59100
Mn383      Mn  0.45706881  0.36743936  0.36393590     1.20200
Mn384      Mn  0.37044973  0.37355020  0.27045173     1.10100
Cl385      Cl  0.36691120  0.36839187  0.36168673    -0.87100
C386        C  0.48139568  0.26764606  0.24764876     0.95300
C387        C  0.47857397  0.47899574  0.26755511     0.95100
N388        N  0.52356632  0.66980508  0.67230638    -0.07200
N389        N  0.48909541  0.68233697  0.70226301    -0.59300
N390        N  0.55762572  0.69299583  0.55969309    -0.06900
N391        N  0.54996956  0.71951470  0.52256656    -0.61500
N392        N  0.52539520  0.65936650  0.56259421    -0.06500
N393        N  0.49506189  0.66247100  0.52744959    -0.59300
N394        N  0.55427812  0.70481450  0.66842988    -0.06200
N395        N  0.54062757  0.74171593  0.69503059    -0.61800
C396        C  0.50017797  0.72727259  0.71668844     0.95000
C397        C  0.51135279  0.69970090  0.50246032     0.94700
N398        N  0.70433039  0.67167693  0.55876179    -0.07400
N399        N  0.73743563  0.68274429  0.52693901    -0.59900
N400        N  0.66749817  0.70491525  0.66784363    -0.05500
N401        N  0.67584955  0.73885137  0.69948854    -0.61200
N402        N  0.70120900  0.67297066  0.66848700    -0.07400
N403        N  0.73312994  0.68464812  0.70037249    -0.60200
N404        N  0.67021537  0.70317406  0.55814094    -0.05200
N405        N  0.67986288  0.73612350  0.52609254    -0.61200
Mn406      Mn  0.61233768  0.70245541  0.61348886     1.18400
C407        C  0.72188288  0.72304227  0.50638814     0.97000
C408        C  0.71659494  0.72534468  0.71980344     0.97700
N409        N  0.52538224  0.54740581  0.56784792    -0.07400
N410        N  0.49054845  0.53377177  0.53923415    -0.63800
N411        N  0.56587060  0.52356749  0.67532755    -0.06200
N412        N  0.55923437  0.49206170  0.70882284    -0.64400
N413        N  0.53199388  0.55537231  0.67655629    -0.07000
N414        N  0.50141270  0.54571993  0.71058067    -0.64000
N415        N  0.56024776  0.51673455  0.56545998    -0.05800
N416        N  0.54968366  0.48209631  0.53459447    -0.64700
Mn417      Mn  0.52554763  0.60799751  0.62031746     1.10700
C418        C  0.50616355  0.49326808  0.51805357     0.98300
C419        C  0.51935999  0.50670619  0.73079724     0.98300
N420        N  0.71000968  0.55845505  0.67107598    -0.07000
N421        N  0.74492425  0.54814753  0.70071551    -0.62300
N422        N  0.67489353  0.52371130  0.56233332    -0.06300
N423        N  0.68780504  0.49039865  0.53135264    -0.59100
N424        N  0.70553672  0.55894271  0.56179328    -0.07600
N425        N  0.73916792  0.55064316  0.53051029    -0.61900
N426        N  0.67760182  0.52481008  0.67238276    -0.06600
N427        N  0.68940303  0.49206512  0.70354371    -0.59100
Mn428      Mn  0.70604552  0.61563033  0.61522149     1.20200
Mn429      Mn  0.61957872  0.52122849  0.61850756     1.10100
Cl430      Cl  0.61589186  0.61180814  0.61699946    -0.87100
C431        C  0.73134511  0.50695008  0.72163864     0.95300
C432        C  0.72806637  0.50789658  0.51176684     0.95100
C433        C  0.58467804  0.14195871  0.57762057     0.85400
C434        C  0.55775641  0.11327807  0.61537336    -0.54800
C435        C  0.58648571  0.09367519  0.64823608     0.08300
C436        C  0.63879778  0.10336838  0.64088998     0.19300
C437        C  0.61359146  0.17778256  0.60773948    -0.55600
C438        C  0.64214963  0.15719433  0.64032822     0.08400
C439        C  0.62036421  0.10697076  0.55675567    -0.55100
C440        C  0.64840964  0.08740098  0.59001280     0.09000
H441        H  0.51984835  0.10927969  0.61805908     0.13500
H442        H  0.66239456  0.08624528  0.66678528    -0.00700
H443        H  0.61218547  0.21587403  0.60328093     0.13800
H444        H  0.62294069  0.09801033  0.51909211     0.13600
C445        C  0.07837795  0.08555375  0.14559385     0.85400
C446        C  0.10574849  0.05598382  0.10915313    -0.54800
C447        C  0.13495961  0.08168172  0.08137746     0.08300
C448        C  0.13437960  0.13494773  0.09118258     0.19300
C449        C  0.11500002  0.11566750  0.17272590    -0.55600
C450        C  0.14495239  0.14101205  0.14437170     0.08400
C451        C  0.05283071  0.12233795  0.11553778    -0.55100
C452        C  0.08234659  0.14818232  0.08768892     0.09000
H453        H  0.10321247  0.01763003  0.10617054     0.13500
H454        H  0.15835794  0.15420685  0.06704352    -0.00700
H455        H  0.11570278  0.11852142  0.21126780     0.13800
H456        H  0.01550621  0.12985947  0.11603020     0.13600
C457        C  0.22061878  0.24812156  0.17827899    -0.21400
C458        C  0.24288881  0.23070872  0.21847742    -0.08000
C459        C  0.23731035  0.18312687  0.23103722     0.12900
C460        C  0.20780246  0.15394330  0.20359554    -0.21500
C461        C  0.18245928  0.17183159  0.16497465    -0.08000
C462        C  0.18995562  0.21955230  0.15136435     0.12900
C463        C  0.16416133  0.24236496  0.11111023    -0.24800
H464        H  0.22564522  0.28501748  0.16927593     0.14200
H465        H  0.20303084  0.11728089  0.21351153     0.14200
C466        C  0.26206713  0.16346620  0.27360321    -0.24700
H467        H  0.17082532  0.28113479  0.11007744     0.04400
H468        H  0.12578178  0.23743814  0.11572617     0.07600
H469        H  0.17626897  0.22780300  0.07641989     0.07600
H470        H  0.25045492  0.18260859  0.30638761     0.07600
H471        H  0.30080689  0.16782195  0.26925102     0.07600
H472        H  0.25425538  0.12520518  0.27807683     0.04400
C473        C  0.54560281  0.22637791  0.48093294    -0.21400
C474        C  0.49675381  0.21876344  0.48125168    -0.08000
C475        C  0.47767570  0.17987492  0.50530025     0.12900
C476        C  0.50745482  0.15293038  0.53342782    -0.21500
C477        C  0.55559240  0.16488696  0.53911107    -0.08000
C478        C  0.57558723  0.19929278  0.50845280     0.12900
C479        C  0.62781316  0.20973405  0.50369289    -0.24800
H480        H  0.56061865  0.25484102  0.46015220     0.14200
H481        H  0.49229594  0.12256382  0.55062525     0.14200
C482        C  0.42640886  0.16610663  0.50057991    -0.24700
H483        H  0.63845745  0.20588447  0.46575110     0.04400
H484        H  0.65079851  0.18603370  0.52388664     0.07600
H485        H  0.63509944  0.24671838  0.51563305     0.07600
H486        H  0.41767749  0.16049547  0.46243833     0.07600
H487        H  0.40360654  0.19427408  0.51597394     0.07600
H488        H  0.41818066  0.13280834  0.51950025     0.04400
C489        C  0.22916053  0.49134154  0.55500768    -0.21400
C490        C  0.22311400  0.49378979  0.50552657    -0.08000
C491        C  0.18747460  0.52342744  0.48724811     0.21700
C492        C  0.16124109  0.55183418  0.51882014    -0.21500
C493        C  0.16945336  0.55110676  0.56775644    -0.08000
C494        C  0.20225884  0.51914128  0.58640776     0.12900
C495        C  0.20939156  0.51338007  0.63909487    -0.24800
H496        H  0.25501268  0.46747014  0.56949661     0.14200
H497        H  0.13579496  0.57659549  0.50506503     0.14200
C498        C  0.17788945  0.52715838  0.43474302    -0.24700
H499        H  0.20296492  0.47584603  0.64853949     0.04400
H500        H  0.18497783  0.53540528  0.66091413     0.07600
H501        H  0.24620363  0.52313380  0.64853786     0.07600
H502        H  0.16466352  0.49273294  0.42048781     0.07600
H503        H  0.21061959  0.53767265  0.41566760     0.07600
H504        H  0.15057081  0.55407115  0.42733338     0.04400
C505        C  0.48909835  0.55490281  0.22731125    -0.21400
C506        C  0.50892721  0.51279315  0.24287915    -0.08000
C507        C  0.55699463  0.50333525  0.23382007     0.12900
C508        C  0.58255200  0.53404642  0.20487327    -0.21500
C509        C  0.56133492  0.57376172  0.18442060    -0.08000
C510        C  0.51582334  0.58727427  0.20117427     0.12900
C511        C  0.49519047  0.63593786  0.19537045    -0.24800
H512        H  0.45306324  0.56345021  0.23728239     0.14200
H513        H  0.61937448  0.52650294  0.19810724     0.14200
C514        C  0.58117211  0.46006040  0.25264791    -0.24700
H515        H  0.48382051  0.65002712  0.23071053     0.04400
H516        H  0.46391571  0.63386098  0.17181646     0.07600
H517        H  0.52086333  0.66195618  0.18139197     0.07600
H518        H  0.56228805  0.42754673  0.24047675     0.07600
H519        H  0.58177887  0.46165198  0.29210072     0.07600
H520        H  0.61832598  0.45747869  0.24009942     0.04400
C521        C  0.78111003  0.33400470  0.27874378    -0.21400
C522        C  0.81279486  0.30974946  0.30726876    -0.08000
C523        C  0.81128036  0.26021188  0.31039273     0.12900
C524        C  0.77840211  0.23551046  0.28304663    -0.21500
C525        C  0.74755622  0.25969715  0.25332487    -0.08000
C526        C  0.74722401  0.30960772  0.25262501     0.12900
C527        C  0.71098097  0.33750921  0.22587618    -0.24800
H528        H  0.78363572  0.37219193  0.27620395     0.14200
H529        H  0.77772013  0.19713934  0.28378436     0.14200
C530        C  0.84581667  0.23331056  0.34003270    -0.24700
H531        H  0.71419385  0.37613393  0.23340468     0.04400
H532        H  0.67492690  0.32629704  0.23676438     0.07600
H533        H  0.71568216  0.33215124  0.18698472     0.07600
H534        H  0.84157537  0.24341631  0.37808272     0.07600
H535        H  0.88234490  0.24134114  0.32812406     0.07600
H536        H  0.84028573  0.19442920  0.33676428     0.04400
C537        C  0.96285757  0.40441381  0.25423134    -0.21400
C538        C  0.95428934  0.41690547  0.30240741    -0.08000
C539        C  0.98380690  0.45156993  0.32444115     0.12900
C540        C  0.01310113  0.47867511  0.29584464    -0.21500
C541        C  0.01502716  0.47087150  0.24665655    -0.08000
C542        C  0.99260582  0.43148269  0.22589480     0.12900
C543        C  0.00086308  0.41741569  0.17450901    -0.24800
H544        H  0.94706245  0.37336559  0.23804390     0.14200
H545        H  0.03287886  0.50767478  0.31201850     0.14200
C546        C  0.98579423  0.46210916  0.37735061    -0.24700
H547        H  0.98247874  0.38376479  0.16499074     0.04400
H548        H  0.03921182  0.41231478  0.16807654     0.07600
H549        H  0.98756731  0.44510066  0.15059517     0.07600
H550        H  0.02273133  0.45838786  0.38967616     0.07600
H551        H  0.96411489  0.43849273  0.39954275     0.07600
H552        H  0.97429255  0.49907572  0.38448001     0.04400
C553        C  0.93782164  0.25687324  0.49575530    -0.21400
C554        C  0.97393393  0.22978592  0.47502508    -0.08000
C555        C  0.98334640  0.23187606  0.42611340     0.12900
C556        C  0.95678966  0.26242731  0.39875033    -0.21500
C557        C  0.92357212  0.29315449  0.42004422    -0.08000
C558        C  0.91296598  0.28958893  0.46891568     0.12900
C559        C  0.87881989  0.32252414  0.49377145    -0.24800
H560        H  0.93154970  0.25490037  0.53376601     0.14200
H561        H  0.96438186  0.26487362  0.36102257     0.14200
C562        C  0.02264771  0.20358801  0.40337745    -0.24700
H563        H  0.87849467  0.31730779  0.53284535     0.04400
H564        H  0.84249202  0.31574901  0.48097971     0.07600
H565        H  0.88891594  0.35991961  0.48723835     0.07600
H566        H  0.01640771  0.16524755  0.40906397     0.07600
H567        H  0.05692752  0.21404927  0.41946765     0.07600
H568        H  0.02509629  0.20953397  0.36447756     0.04400
C569        C  0.83806632  0.46031122  0.44978178    -0.21400
C570        C  0.81887351  0.42517029  0.41993179    -0.08000
C571        C  0.76933317  0.41800907  0.41961981     0.12900
C572        C  0.74077953  0.44516434  0.45045682    -0.21500
C573        C  0.76006456  0.48070994  0.47989517    -0.08000
C574        C  0.80959227  0.48869251  0.47912958     0.12900
C575        C  0.83352936  0.52624335  0.50942191    -0.24800
H576        H  0.87596249  0.46591060  0.44973161     0.14200
H577        H  0.70289203  0.43964752  0.45048555     0.14200
C578        C  0.74558390  0.38497915  0.38466450    -0.24700
H579        H  0.87252639  0.52552895  0.50531662     0.04400
H580        H  0.82535290  0.52051209  0.54756878     0.07600
H581        H  0.82183572  0.56192930  0.49867729     0.07600
H582        H  0.75650387  0.34794353  0.39002261     0.07600
H583        H  0.75441907  0.39643080  0.34827479     0.07600
H584        H  0.70654947  0.38583891  0.38828324     0.04400
C585        C  0.27321854  0.80873519  0.22622861    -0.21400
C586        C  0.23959676  0.77997934  0.24864736    -0.08000
C587        C  0.23402074  0.78261723  0.29889516     0.12900
C588        C  0.26699907  0.80830039  0.32529294    -0.21500
C589        C  0.30435339  0.83133653  0.30288887    -0.08000
C590        C  0.30569881  0.83498788  0.25308616     0.12900
C591        C  0.34306585  0.86350891  0.22829038    -0.24800
H592        H  0.27613367  0.80811664  0.18775499     0.14200
H593        H  0.26596843  0.80729145  0.36385608     0.14200
C594        C  0.19632146  0.75603451  0.32588240    -0.24700
H595        H  0.33852053  0.86267725  0.18907500     0.04400
H596        H  0.37797375  0.84861295  0.23621807     0.07600
H597        H  0.34158630  0.90099205  0.24065101     0.07600
H598        H  0.20132559  0.71727800  0.32131451     0.07600
H599        H  0.16088577  0.76647657  0.31326742     0.07600
H600        H  0.19750538  0.76398592  0.36469692     0.04400
C601        C  0.42061067  0.97474261  0.30065604    -0.21400
C602        C  0.43106716  0.92631842  0.29892858    -0.08000
C603        C  0.46051631  0.90776620  0.26241387     0.12900
C604        C  0.48198491  0.93896131  0.23136790    -0.21500
C605        C  0.47529705  0.98791788  0.23579900    -0.08000
C606        C  0.44259915  0.00611062  0.26940604     0.12900
C607        C  0.43068677  0.05803259  0.27257413    -0.24800
H608        H  0.39679210  0.98830002  0.32789253     0.14200
H609        H  0.50617805  0.92462457  0.20486917     0.14200
C610        C  0.47081782  0.85572256  0.25450088    -0.24700
H611        H  0.40156917  0.06490883  0.29834699     0.04400
H612        H  0.41922294  0.07047642  0.23722858     0.07600
H613        H  0.46163512  0.07900033  0.28476732     0.07600
H614        H  0.44909292  0.83185743  0.27651140     0.07600
H615        H  0.50864942  0.84894234  0.26165626     0.07600
H616        H  0.46347593  0.84577846  0.21686046     0.04400
C617        C  0.27324038  0.91932513  0.42263745    -0.21400
C618        C  0.32185764  0.92804653  0.42562020    -0.08000
C619        C  0.33884737  0.96663148  0.45291710     0.12900
C620        C  0.30671570  0.99437177  0.47865125    -0.21500
C621        C  0.25803516  0.98442474  0.47797035    -0.08000
C622        C  0.24089274  0.94696616  0.44868585     0.12900
C623        C  0.18894099  0.93627255  0.44401983    -0.24800
H624        H  0.26067872  0.89004990  0.40065924     0.14200
H625        H  0.32024249  0.02334855  0.50045768     0.14200
C626        C  0.39044394  0.97973438  0.45551757    -0.24700
H627        H  0.18214903  0.90780120  0.41714681     0.04400
H628        H  0.17002679  0.96847326  0.43268995     0.07600
H629        H  0.17437161  0.92407124  0.47842978     0.07600
H630        H  0.41319550  0.95658269  0.43309012     0.07600
H631        H  0.40258381  0.97751135  0.49288675     0.07600
H632        H  0.39543905  0.01661922  0.44326108     0.04400
C633        C  0.48027712  0.77923444  0.40202929    -0.21400
C634        C  0.43264190  0.78899989  0.41327040    -0.08000
C635        C  0.40908077  0.75899376  0.44622047     0.12900
C636        C  0.43554372  0.72714593  0.47241469    -0.21500
C637        C  0.48425746  0.72339523  0.46587039    -0.08000
C638        C  0.50647676  0.74724449  0.42831545     0.12900
C639        C  0.55754208  0.73865146  0.41541179    -0.24800
H640        H  0.49788301  0.79609766  0.37276548     0.14200
H641        H  0.41821677  0.70695313  0.50005161     0.14200
C642        C  0.35656230  0.75916418  0.45607023    -0.24700
H643        H  0.56810472  0.75768405  0.38272950     0.04400
H644        H  0.56321704  0.70022820  0.40879402     0.07600
H645        H  0.58101758  0.75124626  0.44442025     0.07600
H646        H  0.33603434  0.78328026  0.43385660     0.07600
H647        H  0.35010464  0.76917366  0.49389561     0.07600
H648        H  0.34209749  0.72301835  0.44953621     0.04400
C649        C  0.26589685  0.33595900  0.79532016    -0.21400
C650        C  0.31451876  0.32808629  0.79265120    -0.08000
C651        C  0.33362106  0.30105067  0.75471946     0.12900
C652        C  0.30314318  0.27654626  0.72450632    -0.21500
C653        C  0.25421212  0.27915364  0.73088350    -0.08000
C654        C  0.23507177  0.31151515  0.76465945     0.12900
C655        C  0.18265207  0.31782807  0.77100201    -0.24800
H656        H  0.25183587  0.35798521  0.82385377     0.14200
H657        H  0.31789310  0.25369378  0.69689775     0.14200
C658        C  0.38589939  0.29557837  0.74651913    -0.24700
H659        H  0.17433355  0.34327194  0.80037723     0.04400
H660        H  0.16580069  0.28338566  0.77953999     0.07600
H661        H  0.16724443  0.33183654  0.73790549     0.07600
H662        H  0.39588974  0.25793503  0.75081530     0.07600
H663        H  0.40717468  0.31786945  0.77113288     0.07600
H664        H  0.39493469  0.30648706  0.70979992     0.04400
C665        C  0.33604146  0.46459624  0.94395593    -0.21400
C666        C  0.31498591  0.42202108  0.92921676    -0.08000
C667        C  0.26783090  0.41157328  0.94174407     0.12900
C668        C  0.24250240  0.44466636  0.96876906    -0.21500
C669        C  0.26395257  0.48658059  0.98497328    -0.08000
C670        C  0.31110504  0.49712245  0.97221435     0.12900
C671        C  0.33486058  0.54282262  0.98729328    -0.24800
H672        H  0.37254693  0.47166261  0.93445407     0.14200
H673        H  0.20611648  0.43712831  0.97837200     0.14200
C674        C  0.24352801  0.36572356  0.92808014    -0.24700
H675        H  0.37100483  0.54587515  0.97210819     0.04400
H676        H  0.33800519  0.54460704  0.02659357     0.07600
H677        H  0.31402381  0.57337831  0.97489213     0.07600
H678        H  0.23203312  0.34719641  0.96073236     0.07600
H679        H  0.26639825  0.34123388  0.90736824     0.07600
H680        H  0.21200004  0.37334741  0.90629728     0.04400
C681        C  0.40492096  0.26652366  0.97370625    -0.21400
C682        C  0.41528759  0.27468152  0.92537233    -0.08000
C683        C  0.44960900  0.24549814  0.90236510     0.12900
C684        C  0.47851997  0.21765126  0.93011458    -0.21500
C685        C  0.47408683  0.21823911  0.97957996    -0.08000
C686        C  0.43511293  0.24005216  0.00157862     0.12900
C687        C  0.42537111  0.23590919  0.05418898    -0.24800
H688        H  0.37451849  0.28186976  0.99091746     0.14200
H689        H  0.50718679  0.19836173  0.91311864     0.14200
C690        C  0.45927364  0.24382224  0.84949359    -0.24700
H691        H  0.39128117  0.25244768  0.06451543     0.04400
H692        H  0.45335276  0.25411446  0.07507965     0.07600
H693        H  0.42371467  0.19798584  0.06390224     0.07600
H694        H  0.43630554  0.26664989  0.82870281     0.07600
H695        H  0.45428883  0.20699196  0.83589472     0.07600
H696        H  0.49628273  0.25490938  0.84246336     0.04400
C697        C  0.50657776  0.47053220  0.80922782    -0.21400
C698        C  0.49196931  0.47629368  0.76225197    -0.08000
C699        C  0.45194191  0.45185929  0.74502115     0.12900
C700        C  0.42636637  0.42305389  0.77583115    -0.21500
C701        C  0.44016595  0.41767325  0.82321565    -0.08000
C702        C  0.48060854  0.44208335  0.84045026     0.12900
C703        C  0.49631895  0.44086939  0.89157030    -0.24800
H704        H  0.53764962  0.48931221  0.82193303     0.14200
H705        H  0.39573181  0.40401301  0.76254175     0.14200
C706        C  0.43702238  0.45491765  0.69373798    -0.24700
H707        H  0.53123333  0.42340830  0.89358303     0.04400
H708        H  0.47114513  0.42230926  0.91513372     0.07600
H709        H  0.49964795  0.47764054  0.90580984     0.07600
H710        H  0.46640233  0.44333770  0.67004899     0.07600
H711        H  0.42739283  0.49187646  0.68541580     0.07600
H712        H  0.40594815  0.43198020  0.68596683     0.04400
C713        C  0.18236305  0.76790875  0.72227508    -0.21400
C714        C  0.23115613  0.76429533  0.72021742    -0.08000
C715        C  0.25346390  0.73635115  0.68508454     0.12900
C716        C  0.22578608  0.70820178  0.65543823    -0.21500
C717        C  0.17663335  0.70586422  0.66174509    -0.08000
C718        C  0.15438655  0.74013550  0.69217258     0.12900
C719        C  0.10187991  0.74854488  0.69504773    -0.24800
H720        H  0.16607078  0.79207386  0.74780299     0.14200
H721        H  0.24341854  0.68781933  0.62803652     0.14200
C722        C  0.30653107  0.73495002  0.67983431    -0.24700
H723        H  0.08869601  0.73971145  0.73112172     0.04400
H724        H  0.08128606  0.72820860  0.66855795     0.07600
H725        H  0.09470904  0.78651915  0.68858578     0.07600
H726        H  0.32265247  0.72294433  0.71342114     0.07600
H727        H  0.32025007  0.77072459  0.67132152     0.07600
H728        H  0.31788970  0.71026936  0.65086684     0.04400
C729        C  0.21529968  0.05533422  0.06769991    -0.21400
C730        C  0.16933535  0.05868063  0.05045338    -0.08000
C731        C  0.15611256  0.03567915  0.00767498     0.12900
C732        C  0.19013338  0.01004267  0.98228242    -0.21500
C733        C  0.23571163  0.00567668  0.00027439    -0.08000
C734        C  0.24871877  0.02815031  0.04337256     0.12900
C735        C  0.29758007  0.02347745  0.06364446    -0.24800
H736        H  0.22441811  0.07253795  0.10121408     0.14200
H737        H  0.18100036  0.99248210  0.94898573     0.14200
C738        C  0.10640720  0.03766374  0.98915149    -0.24700
H739        H  0.30165693  0.04424630  0.09728555     0.04400
H740        H  0.32415031  0.03651373  0.03773215     0.07600
H741        H  0.30473116  0.98580080  0.07143843     0.07600
H742        H  0.09666667  0.07479284  0.98235499     0.07600
H743        H  0.08146778  0.02257246  0.01550363     0.07600
H744        H  0.10248493  0.01721959  0.95530475     0.04400
C745        C  0.50425547  0.68646238  0.97785703    -0.21400
C746        C  0.51268045  0.73538243  0.97920540    -0.08000
C747        C  0.54988314  0.75436344  0.00671822     0.12900
C748        C  0.57544844  0.72393288  0.03530162    -0.21500
C749        C  0.56345146  0.67584272  0.03786356    -0.08000
C750        C  0.52902275  0.65624415  0.00710436     0.12900
C751        C  0.51712349  0.60411836  0.00398661    -0.24800
H752        H  0.47630661  0.67182666  0.95578782     0.14200
H753        H  0.60317655  0.73826680  0.05772392     0.14200
C754        C  0.56261950  0.80629649  0.00636155    -0.24700
H755        H  0.52196599  0.59131982  0.96672068     0.04400
H756        H  0.47973161  0.59849338  0.01457265     0.07600
H757        H  0.53959693  0.58196831  0.02660895     0.07600
H758        H  0.53358620  0.82777447  0.02190496     0.07600
H759        H  0.56967824  0.81746903  0.96930047     0.07600
H760        H  0.59472618  0.81395813  0.02768910     0.04400
C761        C  0.51396107  0.05128318  0.75080523    -0.21400
C762        C  0.52685882  0.00346291  0.75095919    -0.08000
C763        C  0.56365428  0.98686331  0.72144469     0.12900
C764        C  0.58504176  0.01855974  0.69025304    -0.21500
C765        C  0.56867029  0.06515543  0.68704796    -0.08000
C766        C  0.53370063  0.08231964  0.71861062     0.12900
C767        C  0.51517392  0.13238352  0.71899054    -0.24800
H768        H  0.48568057  0.06411113  0.77368809     0.14200
H769        H  0.61262311  0.00621612  0.66632475     0.14200
C770        C  0.57978946  0.93614515  0.72230980    -0.24700
H771        H  0.51890709  0.14814858  0.75523830     0.04400
H772        H  0.47718640  0.13191132  0.70952685     0.07600
H773        H  0.53396253  0.15602119  0.69415730     0.07600
H774        H  0.55086054  0.91204564  0.71077188     0.07600
H775        H  0.59071756  0.92708434  0.75889474     0.07600
H776        H  0.61030946  0.93003423  0.69804451     0.04400
C777        C  0.70831888  0.20857039  0.74575361    -0.21400
C778        C  0.74046154  0.23839004  0.72283404    -0.08000
C779        C  0.74138470  0.24000583  0.67244904     0.12900
C780        C  0.70862425  0.21290219  0.64672965    -0.21500
C781        C  0.67571004  0.18411719  0.66989693    -0.08000
C782        C  0.67579253  0.18139439  0.72001196     0.12900
C783        C  0.63993262  0.15282692  0.74710012    -0.24800
H784        H  0.70784565  0.20745960  0.78428515     0.14200
H785        H  0.70844485  0.21428475  0.60820842     0.14200
C786        C  0.77512415  0.27115573  0.64526610    -0.24700
H787        H  0.64360909  0.15778973  0.78617761     0.04400
H788        H  0.64396314  0.11454465  0.73936938     0.07600
H789        H  0.60421795  0.16463015  0.73746968     0.07600
H790        H  0.81201664  0.26035986  0.65214958     0.07600
H791        H  0.77003269  0.30879031  0.65600451     0.07600
H792        H  0.76949014  0.26834222  0.60624143     0.04400
C793        C  0.07090880  0.18041620  0.00851272    -0.21400
C794        C  0.06421142  0.18531171  0.05761301    -0.08000
C795        C  0.03399609  0.22053405  0.07643434     0.12900
C796        C  0.00789485  0.24724234  0.04521722    -0.21500
C797        C  0.01144927  0.23974432  0.99596949    -0.08000
C798        C  0.04411366  0.20679736  0.97705048     0.12900
C799        C  0.04884309  0.19715278  0.92434595    -0.24800
H800        H  0.09511602  0.15401305  0.99479105     0.14200
H801        H  0.98427825  0.27397987  0.05968472     0.14200
C802        C  0.02815490  0.23080994  0.12904087    -0.24700
H803        H  0.07377730  0.16779084  0.91653675     0.04400
H804        H  0.06248507  0.22909774  0.90627300     0.07600
H805        H  0.01398388  0.18697581  0.90937883     0.07600
H806        H  0.05214726  0.20991603  0.15139861     0.07600
H807        H  0.99121172  0.22323364  0.14000349     0.07600
H808        H  0.03603482  0.26877995  0.13644346     0.04400
C809        C  0.72165111  0.54842536  0.07860325    -0.21400
C810        C  0.68702342  0.57448987  0.05563622    -0.08000
C811        C  0.68528396  0.57442675  0.00540468     0.12900
C812        C  0.71643465  0.54544638  0.97964050    -0.21500
C813        C  0.74895569  0.51670700  0.00275468    -0.08000
C814        C  0.75275714  0.51941734  0.05301278     0.12900
C815        C  0.78731911  0.49032781  0.08062938    -0.24800
H816        H  0.72299188  0.54937304  0.11716340     0.14200
H817        H  0.71414994  0.54382670  0.94115991     0.14200
C818        C  0.64904580  0.60195778  0.97858400    -0.24700
H819        H  0.78407758  0.49674865  0.11960075     0.04400
H820        H  0.82396645  0.49980109  0.07021818     0.07600
H821        H  0.78071284  0.45201964  0.07392305     0.07600
H822        H  0.65397137  0.64046638  0.98486424     0.07600
H823        H  0.61335842  0.59092274  0.99001721     0.07600
H824        H  0.65168085  0.59549783  0.93958098     0.04400
C825        C  0.99947169  0.56389757  0.74520797    -0.21400
C826        C  0.00375998  0.51537138  0.73724895    -0.08000
C827        C  0.03467295  0.49697713  0.70243065     0.12900
C828        C  0.06148614  0.52836527  0.67588666    -0.21500
C829        C  0.05738172  0.57729014  0.68333711    -0.08000
C830        C  0.02554004  0.59557942  0.71807299     0.12900
C831        C  0.01647523  0.64754324  0.72672303    -0.24800
H832        H  0.97500261  0.57707687  0.77206855     0.14200
H833        H  0.08638525  0.51458449  0.64978894     0.14200
C834        C  0.03960596  0.44438582  0.69360482    -0.24700
H835        H  0.97809636  0.65454733  0.72367353     0.04400
H836        H  0.03432338  0.67038008  0.70076706     0.07600
H837        H  0.02815299  0.65791076  0.76308073     0.07600
H838        H  0.00512846  0.42902088  0.68263663     0.07600
H839        H  0.05148788  0.42704363  0.72656952     0.07600
H840        H  0.06574326  0.43637747  0.66503817     0.04400
C841        C  0.72348154  0.69597241  0.14913503    -0.21400
C842        C  0.67497785  0.70468329  0.15146137    -0.08000
C843        C  0.65797839  0.74543959  0.17515903     0.12900
C844        C  0.68949125  0.77329998  0.20152993    -0.21500
C845        C  0.73693401  0.75993035  0.20618160    -0.08000
C846        C  0.75503022  0.72315939  0.17656054     0.12900
C847        C  0.80680048  0.71127884  0.17451977    -0.24800
H848        H  0.73613445  0.66529527  0.12928381     0.14200
H849        H  0.67581321  0.80301504  0.22207262     0.14200
C850        C  0.60638009  0.75826396  0.17466343    -0.24700
H851        H  0.81458775  0.68496714  0.14577716     0.04400
H852        H  0.81824398  0.69557718  0.20840214     0.07600
H853        H  0.82775842  0.74373456  0.16724003     0.07600
H854        H  0.58489977  0.73031579  0.19179337     0.07600
H855        H  0.59447041  0.76247237  0.13751485     0.07600
H856        H  0.59959245  0.79209198  0.19414600     0.04400
C857        C  0.04231180  0.99278008  0.23698594    -0.21400
C858        C  0.99322172  0.99623870  0.23592583    -0.08000
C859        C  0.97125555  0.02649066  0.20379349     0.12900
C860        C  0.99939190  0.05448467  0.17477184    -0.21500
C861        C  0.04907943  0.05394566  0.17753110    -0.08000
C862        C  0.07084759  0.02093224  0.20834294     0.12900
C863        C  0.12377749  0.01406716  0.21212580    -0.24800
H864        H  0.05861553  0.96874617  0.26158544     0.14200
H865        H  0.98124230  0.07576426  0.14954469     0.14200
C866        C  0.91825249  0.02855193  0.19867969    -0.24700
H867        H  0.13260143  0.98500063  0.23663050     0.04400
H868        H  0.14141443  0.04605403  0.22676949     0.07600
H869        H  0.13960676  0.00416177  0.17735818     0.07600
H870        H  0.90199119  0.04387506  0.23138282     0.07600
H871        H  0.90390784  0.99242915  0.19179488     0.07600
H872        H  0.90754267  0.05115609  0.16868159     0.04400
C873        C  0.97750292  0.68433989  0.52273123    -0.21400
C874        C  0.99687387  0.71137061  0.48616907    -0.08000
C875        C  0.04515293  0.70716556  0.47401914     0.12900
C876        C  0.07398557  0.68010342  0.50262040    -0.21500
C877        C  0.05579398  0.65855222  0.54319342    -0.08000
C878        C  0.00673384  0.65805832  0.55204311     0.12900
C879        C  0.98552770  0.63325347  0.59409356    -0.24800
H880        H  0.94005102  0.68661785  0.53049683     0.14200
H881        H  0.11168274  0.67906607  0.49574928     0.14200
C882        C  0.06684514  0.73153261  0.43172198    -0.24700
H883        H  0.94658248  0.63724646  0.59564402     0.04400
H884        H  0.00018213  0.64866168  0.62727836     0.07600
H885        H  0.99335487  0.59484926  0.59189458     0.07600
H886        H  0.06693914  0.77046889  0.43741365     0.07600
H887        H  0.04677072  0.72216549  0.39906743     0.07600
H888        H  0.10408043  0.72072177  0.42581631     0.04400
C889        C  0.75775861  0.03025073  0.54381235    -0.21400
C890        C  0.73932644  0.98574459  0.52998902    -0.08000
C891        C  0.69395282  0.97181361  0.54626326     0.12900
C892        C  0.66615230  0.00520525  0.57019281    -0.21500
C893        C  0.68267720  0.05131861  0.57764276    -0.08000
C894        C  0.72943215  0.06366175  0.56686231     0.12900
C895        C  0.74829185  0.11278096  0.57697287    -0.24800
H896        H  0.79310189  0.04058247  0.53317245     0.14200
H897        H  0.63005344  0.99649262  0.57979066     0.14200
C898        C  0.67318917  0.92329229  0.53682349    -0.24700
H899        H  0.78561982  0.11666870  0.56537652     0.04400
H900        H  0.74644290  0.12036585  0.61578815     0.07600
H901        H  0.72701866  0.13923278  0.55785284     0.07600
H902        H  0.69814965  0.89568006  0.54843546     0.07600
H903        H  0.66505548  0.91854581  0.49849773     0.07600
H904        H  0.63957148  0.91806538  0.55662530     0.04400
C905        C  0.84386941  0.97836285  0.94687346    -0.21400
C906        C  0.82936399  0.93094911  0.94301555    -0.08000
C907        C  0.79603369  0.91237109  0.97537049     0.12900
C908        C  0.77464697  0.94294627  0.00771477    -0.21500
C909        C  0.78467052  0.99151318  0.00779699    -0.08000
C910        C  0.82116341  0.00941551  0.97875773     0.12900
C911        C  0.83556925  0.06084377  0.98078120    -0.24800
H912        H  0.87053467  0.99176543  0.92275882     0.14200
H913        H  0.74713375  0.92891203  0.03058127     0.14200
C914        C  0.78077794  0.86098000  0.97620686    -0.24700
H915        H  0.86628174  0.06794263  0.95716437     0.04400
H916        H  0.84561404  0.07087925  0.01772047     0.07600
H917        H  0.80614332  0.08353506  0.96916507     0.07600
H918        H  0.80186417  0.83766680  0.95239407     0.07600
H919        H  0.74308785  0.85797245  0.96595440     0.07600
H920        H  0.78480370  0.84726957  0.01275635     0.04400
C921        C  0.93401188  0.98122553  0.82407301    -0.21400
C922        C  0.94057012  0.93231810  0.82074169    -0.08000
C923        C  0.98083716  0.91364766  0.79800396     0.12900
C924        C  0.01180013  0.94444877  0.77501549    -0.21500
C925        C  0.00284837  0.99330557  0.77388568    -0.08000
C926        C  0.96494850  0.01229824  0.80108226     0.12900
C927        C  0.95659843  0.06483611  0.80615049    -0.24800
H928        H  0.90342095  0.99496018  0.84288624     0.14200
H929        H  0.04148054  0.92974689  0.75545209     0.14200
C930        C  0.99066987  0.86126270  0.79729670    -0.24700
H931        H  0.92846449  0.07280375  0.83272748     0.04400
H932        H  0.94506878  0.07968512  0.77190490     0.07600
H933        H  0.98941940  0.08284093  0.81830394     0.07600
H934        H  0.96178664  0.84187027  0.77893298     0.07600
H935        H  0.99348956  0.84864106  0.83432269     0.07600
H936        H  0.02419894  0.85279784  0.77844879     0.04400
C937        C  0.75682763  0.81212119  0.81519722    -0.21400
C938        C  0.80567252  0.81588730  0.80474754    -0.08000
C939        C  0.82433537  0.78691817  0.76714745     0.12900
C940        C  0.79383333  0.75801158  0.74066035    -0.21500
C941        C  0.74550393  0.75621496  0.75031621    -0.08000
C942        C  0.72657914  0.78322184  0.78811484     0.12900
C943        C  0.67498551  0.78012302  0.80136853    -0.24800
H944        H  0.74148183  0.82989216  0.84556517     0.14200
H945        H  0.80791409  0.73686623  0.71138499     0.14200
C946        C  0.87619008  0.78475876  0.75407989    -0.24700
H947        H  0.66663263  0.80161588  0.83373506     0.04400
H948        H  0.66520303  0.74276864  0.80854246     0.07600
H949        H  0.65304625  0.79351573  0.77199359     0.07600
H950        H  0.89813972  0.77781355  0.78560575     0.07600
H951        H  0.88772492  0.81768814  0.73664703     0.07600
H952        H  0.88364424  0.75571041  0.72804650     0.04400
C953        C  0.96087039  0.77778028  0.90459009    -0.21400
C954        C  0.93397676  0.81332304  0.92666005    -0.08000
C955        C  0.93809696  0.82152534  0.97634683     0.12900
C956        C  0.96690015  0.79173841  0.00282208    -0.21500
C957        C  0.99276196  0.75545878  0.98072595    -0.08000
C958        C  0.99049738  0.74892168  0.93075071     0.12900
C959        C  0.01721287  0.71033685  0.90462872    -0.24800
H960        H  0.95798580  0.77204832  0.86647635     0.14200
H961        H  0.96920584  0.79663786  0.04107943     0.14200
C962        C  0.91104830  0.85965396  0.00245834    -0.24700
H963        H  0.00867666  0.70902036  0.86610754     0.04400
H964        H  0.00799946  0.67532037  0.91961618     0.07600
H965        H  0.05573834  0.71682856  0.90754909     0.07600
H966        H  0.91671104  0.85851945  0.04148059     0.07600
H967        H  0.92248934  0.89517878  0.99085161     0.07600
H968        H  0.87301730  0.85454785  0.99622687     0.04400
loop_ 
_geom_bond_atom_site_label_1 
_geom_bond_atom_site_label_2 
_geom_bond_distance 
_geom_bond_site_symmetry_2 
_ccdc_geom_bond_type 
C1            C2   1.538       .  S
C1            C7   1.533       .  S
C1            C5   1.539       .  S
C1          C938   1.531       .  S
C2            H9   1.087       .  S
C2            C3   1.366       .  D
C3            C4   1.525       .  S
C3          C954   1.477       .  S
C4            C8   1.526       .  S
C4            C6   1.525       .  S
C4           H10   1.108       .  S
C5           H11   1.081       .  S
C5            C6   1.363       .  D
C6          C906   1.458       .  S
C7           H12   1.084       .  S
C7            C8   1.361       .  D
C8          C922   1.461       .  S
N13          N14   1.315       .  A
N13          N19   1.315       .  A
N13         Mn42   2.192       .  S
N14          C21   1.351       .  A
N15          N17   1.318       .  A
N15          N16   1.340       .  A
N15         Mn31   2.304       .  S
N16          C22   1.370       .  A
N17          N18   1.332       .  A
N17         Mn42   2.252       .  S
N18          C22   1.359       .  A
N19          N20   1.313       .  A
N19         Mn31   2.171       .  S
N20          C21   1.350       .  A
C21         C890   1.469       .  S
C22         C294   1.538   1_565  S
N23          N29   1.318       .  A
N23          N24   1.313       .  A
N23         Mn53   2.182       .  S
N24          C32   1.349       .  A
N25          N26   1.335       .  A
N25          N27   1.320       .  A
N25         Mn31   2.286       .  S
N26          C33   1.365       .  A
N27          N28   1.337       .  A
N27         Mn53   2.276       .  S
N28          C33   1.364       .  A
N29          N30   1.312       .  A
N29         Mn31   2.173       .  S
N30          C32   1.347       .  A
Mn31        Cl55   2.570       .  S
C32         C858   1.453       .  S
C33         C203   1.539   1_655  S
N34          N35   1.316       .  A
N34          N40   1.316       .  A
N34         Mn42   2.183       .  S
N35          C43   1.351       .  A
N36          N38   1.318       .  A
N36          N37   1.332       .  A
N36         Mn54   2.261       .  S
N37          C44   1.362       .  A
N38          N39   1.332       .  A
N38         Mn42   2.255       .  S
N39          C44   1.361       .  A
N40          N41   1.319       .  A
N40         Mn54   2.205       .  S
N41          C43   1.354       .  A
Mn42        Cl55   2.562       .  S
C43         C845   1.477       .  S
C44         C407   1.520       .  S
N45          N46   1.313       .  A
N45          N51   1.320       .  A
N45         Mn53   2.182       .  S
N46          C56   1.346       .  A
N47          N48   1.333       .  A
N47          N49   1.320       .  A
N47         Mn54   2.259       .  S
N48          C57   1.361       .  A
N49          N50   1.333       .  A
N49         Mn53   2.268       .  S
N50          C57   1.362       .  A
N51          N52   1.318       .  A
N51         Mn54   2.192       .  S
N52          C56   1.348       .  A
Mn53        Cl55   2.563       .  S
Mn54        Cl55   2.565       .  S
C56         C874   1.455       .  S
C57         C237   1.523   1_655  S
N58          N59   1.332   1_655  A
N58          N64   1.319       .  A
N58         Mn87   2.252       .  S
N59          C66   1.360   1_455  A
N60          N62   1.317       .  A
N60          N61   1.313       .  A
N60         Mn76   2.187       .  S
N61          C67   1.350       .  A
N62          N63   1.315       .  A
N62         Mn87   2.172       .  S
N63          C67   1.347       .  A
N64          N65   1.334       .  A
N64         Mn76   2.279       .  S
N65          C66   1.365       .  A
C66         C248   1.525   1_656  S
C67         C797   1.457   1_655  S
N68          N74   1.321       .  A
N68          N69   1.334       .  A
N68         Mn98   2.270       .  S
N69          C77   1.362       .  A
N70          N71   1.314       .  A
N70          N72   1.318       .  A
N70         Mn76   2.175       .  S
N71          C78   1.347       .  A
N72          N73   1.319       .  A
N72         Mn98   2.212       .  S
N73          C78   1.355       .  A
N74          N75   1.335       .  A
N74         Mn76   2.281       .  S
N75          C77   1.365       .  A
Mn76       Cl100   2.558       .  S
C77         C305   1.530   1_556  S
C78         C813   1.472   1_556  S
N79          N80   1.331       .  A
N79          N85   1.318       .  A
N79         Mn87   2.253       .  S
N80          C88   1.360       .  A
N81          N83   1.315       .  A
N81          N82   1.313       .  A
N81         Mn99   2.171       .  S
N82          C89   1.346       .  A
N83          N84   1.313       .  A
N83         Mn87   2.166       .  S
N84          C89   1.346       .  A
N85          N86   1.330       .  A
N85         Mn99   2.249       .  S
N86          C88   1.359       .  A
Mn87       Cl100   2.568       .  S
C88         C227   1.511   1_655  S
C89         C826   1.435   1_655  S
N90          N91   1.333       .  A
N90          N96   1.319       .  A
N90         Mn98   2.271       .  S
N91         C101   1.364       .  A
N92          N93   1.314       .  A
N92          N94   1.317       .  A
N92         Mn99   2.170       .  S
N93         C102   1.346       .  A
N94          N95   1.317       .  A
N94         Mn98   2.202       .  S
N95         C102   1.354       .  A
N96          N97   1.331       .  A
N96         Mn99   2.248       .  S
N97         C101   1.358       .  A
Mn98       Cl100   2.568       .  S
Mn99       Cl100   2.550       .  S
C101        C431   1.517       .  S
C102        C778   1.467       .  S
N103        N104   1.314       .  A
N103        N109   1.317       .  A
N103       Mn132   2.181       .  S
N104        C111   1.349       .  A
N105        N107   1.320       .  A
N105        N106   1.334       .  A
N105       Mn121   2.273       .  S
N106        C112   1.363       .  A
N107        N108   1.333       .  A
N107       Mn132   2.255       .  S
N108        C112   1.360       .  A
N109        N110   1.315       .  A
N109       Mn121   2.184       .  S
N110        C111   1.350       .  A
C111        C746   1.456       .  S
C112        C272   1.522   1_556  S
N113        N119   1.321       .  A
N113        N114   1.315       .  A
N113       Mn143   2.187       .  S
N114        C122   1.347       .  A
N115        N116   1.336       .  A
N115        N117   1.318       .  A
N115       Mn121   2.274       .  S
N116        C123   1.366       .  A
N117        N118   1.330       .  A
N117       Mn143   2.254       .  S
N118        C123   1.359       .  A
N119        N120   1.315       .  A
N119       Mn121   2.193       .  S
N120        C122   1.348       .  A
Mn121      Cl145   2.566       .  S
C122        C733   1.445   1_566  S
C123        C283   1.526   1_566  S
N124        N125   1.315       .  A
N124        N130   1.317       .  A
N124       Mn132   2.187       .  S
N125        C133   1.351       .  A
N126        N128   1.317       .  A
N126        N127   1.332       .  A
N126       Mn144   2.256       .  S
N127        C134   1.362       .  A
N128        N129   1.331       .  A
N128       Mn132   2.245       .  S
N129        C134   1.358       .  A
N130        N131   1.311       .  A
N130       Mn144   2.160       .  S
N131        C133   1.343       .  A
Mn132      Cl145   2.559       .  S
C133        C714   1.435       .  S
C134        C396   1.514       .  S
N135        N136   1.310       .  A
N135        N141   1.314       .  A
N135       Mn143   2.162       .  S
N136        C146   1.347       .  A
N137        N138   1.331       .  A
N137        N139   1.317       .  A
N137       Mn144   2.248       .  S
N138        C147   1.358       .  A
N139        N140   1.340   1_565  A
N139       Mn143   2.298       .  S
N140        C147   1.371   1_545  A
N141        N142   1.317       .  A
N141       Mn144   2.185       .  S
N142        C146   1.354       .  A
Mn143      Cl145   2.557       .  S
Mn144      Cl145   2.554       .  S
C146        C762   1.452   1_565  S
C147        C192   1.536   1_565  S
C148        C149   1.541       .  S
C148        C154   1.524       .  S
C148        C152   1.541       .  S
C148        C682   1.518       .  S
C149        H156   1.086       .  S
C149        C150   1.365       .  D
C150        C151   1.534       .  S
C150        C701   1.474       .  S
C151        C155   1.528       .  S
C151        C153   1.526       .  S
C151        H157   1.111       .  S
C152        H158   1.081       .  S
C152        C153   1.355       .  D
C153        C666   1.456       .  S
C154        H159   1.087       .  S
C154        C155   1.360       .  D
C155        C650   1.461       .  S
C160        C161   1.539       .  S
C160        C166   1.541       .  S
C160        C164   1.531       .  S
C160        C634   1.524       .  S
C161        H168   1.086       .  S
C161        C162   1.365       .  D
C162        C163   1.529       .  S
C162        C618   1.466       .  S
C163        C167   1.526       .  S
C163        C165   1.515       .  S
C163        H169   1.111       .  S
C164        H170   1.087       .  S
C164        C165   1.360       .  D
C165        C589   1.455       .  S
C166        H171   1.082       .  S
C166        C167   1.363       .  D
C167        C602   1.462       .  S
C172        C173   1.537       .  S
C172        C178   1.532       .  S
C172        C176   1.517       .  S
C172        C538   1.508       .  S
C173        H180   1.086       .  S
C173        C174   1.369       .  D
C174        C175   1.541       .  S
C174        C570   1.484       .  S
C175        C179   1.523       .  S
C175        C177   1.535       .  S
C175        H181   1.105       .  S
C176        H182   1.088       .  S
C176        C177   1.357       .  D
C177        C557   1.471       .  S
C178        H183   1.083       .  S
C178        C179   1.354       .  D
C179        C522   1.444       .  S
N184        N185   1.337       .  A
N184        N190   1.321       .  A
N184       Mn213   2.280       .  S
N185        C192   1.365       .  A
N186        N188   1.318       .  A
N186        N187   1.320   1_545  A
N186       Mn202   2.204       .  S
N187        C193   1.354   1_565  A
N188        N189   1.316       .  A
N188       Mn213   2.199       .  S
N189        C193   1.351       .  A
N190        N191   1.335       .  A
N190       Mn202   2.289       .  S
N191        C192   1.365       .  A
C193        C621   1.477   1_545  S
N194        N200   1.320       .  A
N194        N195   1.331   1_455  A
N194       Mn224   2.254       .  S
N195        C203   1.359   1_645  A
N196        N197   1.317       .  A
N196        N198   1.317       .  A
N196       Mn202   2.201       .  S
N197        C204   1.354       .  A
N198        N199   1.316       .  A
N198       Mn224   2.191       .  S
N199        C204   1.350       .  A
N200        N201   1.340   1_545  A
N200       Mn202   2.307       .  S
N201        C203   1.371       .  A
Mn202      Cl226   2.573       .  S
C204        C925   1.473   1_545  S
N205        N206   1.331       .  A
N205        N211   1.319       .  A
N205       Mn213   2.260       .  S
N206        C214   1.361       .  A
N207        N209   1.318       .  A
N207        N208   1.318       .  A
N207       Mn225   2.181       .  S
N208        C215   1.347       .  A
N209        N210   1.316       .  A
N209       Mn213   2.199       .  S
N210        C215   1.353       .  A
N211        N212   1.331       .  A
N211       Mn225   2.248       .  S
N212        C214   1.359       .  A
Mn213      Cl226   2.562       .  S
C214        C351   1.512       .  S
C215        C653   1.466       .  S
N216        N217   1.332   1_455  A
N216        N222   1.318       .  A
N216       Mn224   2.261       .  S
N217        C227   1.362   1_655  A
N218        N219   1.315       .  A
N218        N220   1.316       .  A
N218       Mn225   2.192       .  S
N219        C228   1.350       .  A
N220        N221   1.316   1_455  A
N220       Mn224   2.173       .  S
N221        C228   1.346   1_655  A
N222        N223   1.329       .  A
N222       Mn225   2.244       .  S
N223        C227   1.357       .  A
Mn224      Cl226   2.568       .  S
Mn225      Cl226   2.558       .  S
C228        C554   1.448   1_455  S
N229        N230   1.333       .  A
N229        N235   1.319       .  A
N229       Mn258   2.262       .  S
N230        C237   1.361       .  A
N231        N233   1.315       .  A
N231        N232   1.316       .  A
N231       Mn247   2.197       .  S
N232        C238   1.353       .  A
N233        N234   1.309       .  A
N233       Mn258   2.139       .  S
N234        C238   1.342       .  A
N235        N236   1.334   1_455  A
N235       Mn247   2.266       .  S
N236        C237   1.362   1_655  A
C238        C541   1.445       .  S
N239        N245   1.319       .  A
N239        N240   1.334   1_554  A
N239       Mn269   2.277       .  S
N240        C248   1.365   1_556  A
N241        N242   1.321       .  A
N241        N243   1.320       .  A
N241       Mn247   2.214       .  S
N242        C249   1.356       .  A
N243        N244   1.313   1_554  A
N243       Mn269   2.187       .  S
N244        C249   1.346   1_556  A
N245        N246   1.332       .  A
N245       Mn247   2.251       .  S
N246        C248   1.359       .  A
Mn247      Cl271   2.575       .  S
C249        C957   1.468   1_454  S
N250        N251   1.334       .  A
N250        N256   1.317       .  A
N250       Mn258   2.265       .  S
N251        C259   1.362       .  A
N252        N254   1.314       .  A
N252        N253   1.320       .  A
N252       Mn270   2.208       .  S
N253        C260   1.357       .  A
N254        N255   1.310       .  A
N254       Mn258   2.150       .  S
N255        C260   1.343       .  A
N256        N257   1.335       .  A
N256       Mn270   2.275       .  S
N257        C259   1.366       .  A
Mn258      Cl271   2.548       .  S
C259        C373   1.532       .  S
C260        C586   1.465       .  S
N261        N262   1.334   1_554  A
N261        N267   1.320       .  A
N261       Mn269   2.277       .  S
N262        C272   1.364   1_556  A
N263        N264   1.317       .  A
N263        N265   1.319       .  A
N263       Mn270   2.199       .  S
N264        C273   1.350       .  A
N265        N266   1.316   1_554  A
N265       Mn269   2.185       .  S
N266        C273   1.348   1_556  A
N267        N268   1.332       .  A
N267       Mn270   2.256       .  S
N268        C272   1.360       .  A
Mn269      Cl271   2.555       .  S
Mn270      Cl271   2.572       .  S
C273        C669   1.458   1_554  S
N274        N275   1.317       .  A
N274        N280   1.317       .  A
N274       Mn303   2.189       .  S
N275        C282   1.352       .  A
N276        N278   1.317       .  A
N276        N277   1.335   1_545  A
N276       Mn292   2.260       .  S
N277        C283   1.363   1_565  A
N278        N279   1.332   1_554  A
N278       Mn303   2.267       .  S
N279        C283   1.363   1_556  A
N280        N281   1.312       .  A
N280       Mn292   2.183       .  S
N281        C282   1.350       .  A
C282        C909   1.457   1_545  S
N284        N290   1.314       .  A
N284        N285   1.316       .  A
N284       Mn314   2.183       .  S
N285        C293   1.351       .  A
N286        N287   1.334   1_545  A
N286        N288   1.317       .  A
N286       Mn292   2.268       .  S
N287        C294   1.364   1_565  A
N288        N289   1.337       .  A
N288       Mn314   2.285       .  S
N289        C294   1.367       .  A
N290        N291   1.312       .  A
N290       Mn292   2.172       .  S
N291        C293   1.351       .  A
Mn292      Cl316   2.555       .  S
C293        C605   1.462   1_545  S
N295        N296   1.313   1_554  A
N295        N301   1.316       .  A
N295       Mn303   2.161       .  S
N296        C304   1.347   1_556  A
N297        N299   1.319       .  A
N297        N298   1.334       .  A
N297       Mn315   2.269       .  S
N298        C305   1.362       .  A
N299        N300   1.336   1_554  A
N299       Mn303   2.274       .  S
N300        C305   1.365   1_556  A
N301        N302   1.315       .  A
N301       Mn315   2.187       .  S
N302        C304   1.351       .  A
Mn303      Cl316   2.572       .  S
C304        C685   1.451   1_554  S
N306        N307   1.310       .  A
N306        N312   1.319       .  A
N306       Mn314   2.156       .  S
N307        C317   1.344       .  A
N308        N309   1.332       .  A
N308        N310   1.320       .  A
N308       Mn315   2.255       .  S
N309        C318   1.360       .  A
N310        N311   1.332       .  A
N310       Mn314   2.265       .  S
N311        C318   1.362       .  A
N312        N313   1.312       .  A
N312       Mn315   2.180       .  S
N313        C317   1.347       .  A
Mn314      Cl316   2.566       .  S
Mn315      Cl316   2.549       .  S
C317        C525   1.443       .  S
C318        C386   1.519       .  S
C319        C320   1.525       .  S
C319        C325   1.545       .  S
C319        C323   1.536       .  S
C319        C509   1.524       .  S
C320        H327   1.087       .  S
C320        C321   1.361       .  D
C321        C322   1.526       .  S
C321        C842   1.464       .  S
C322        C326   1.525       .  S
C322        C324   1.529       .  S
C322        H328   1.109       .  S
C323        H329   1.085       .  S
C323        C324   1.365       .  D
C324        C749   1.461       .  S
C325        H330   1.085       .  S
C325        C326   1.365       .  D
C326        C810   1.471       .  S
C331        C332   1.529       .  S
C331        C337   1.523       .  S
C331        C335   1.545       .  S
C331        C717   1.510       .  S
C332        H339   1.087       .  S
C332        C333   1.358       .  D
C333        C334   1.534       .  S
C333        C829   1.458       .  S
C334        C338   1.522       .  S
C334        C336   1.529       .  S
C334        H340   1.111       .  S
C335        H341   1.082       .  S
C335        C336   1.360       .  D
C336        C493   1.466       .  S
C337        H342   1.087       .  S
C337        C338   1.359       .  D
C338        C877   1.459       .  S
N343        N344   1.335       .  A
N343        N349   1.320       .  A
N343       Mn372   2.284       .  S
N344        C351   1.365       .  A
N345        N347   1.319       .  A
N345        N346   1.320       .  A
N345       Mn361   2.218       .  S
N346        C352   1.355       .  A
N347        N348   1.317       .  A
N347       Mn372   2.188       .  S
N348        C352   1.349       .  A
N349        N350   1.327       .  A
N349       Mn361   2.229       .  S
N350        C351   1.354       .  A
C352        C490   1.479       .  S
N353        N359   1.319       .  A
N353        N354   1.330       .  A
N353       Mn383   2.248       .  S
N354        C362   1.358       .  A
N355        N356   1.320       .  A
N355        N357   1.315       .  A
N355       Mn361   2.211       .  S
N356        C363   1.355       .  A
N357        N358   1.312       .  A
N357       Mn383   2.155       .  S
N358        C363   1.345       .  A
N359        N360   1.330       .  A
N359       Mn361   2.248       .  S
N360        C362   1.359       .  A
Mn361      Cl385   2.562       .  S
C362        C418   1.506       .  S
C363        C474   1.461       .  S
N364        N365   1.336       .  A
N364        N370   1.321       .  A
N364       Mn372   2.287       .  S
N365        C373   1.366       .  A
N366        N368   1.319       .  A
N366        N367   1.317       .  A
N366       Mn384   2.193       .  S
N367        C374   1.348       .  A
N368        N369   1.318       .  A
N368       Mn372   2.201       .  S
N369        C374   1.350       .  A
N370        N371   1.333       .  A
N370       Mn384   2.266       .  S
N371        C373   1.362       .  A
Mn372      Cl385   2.566       .  S
C374        C458   1.456       .  S
N375        N376   1.330       .  A
N375        N381   1.318       .  A
N375       Mn383   2.244       .  S
N376        C386   1.358       .  A
N377        N378   1.319       .  A
N377        N379   1.318       .  A
N377       Mn384   2.201       .  S
N378        C387   1.352       .  A
N379        N380   1.315       .  A
N379       Mn383   2.180       .  S
N380        C387   1.347       .  A
N381        N382   1.334       .  A
N381       Mn384   2.274       .  S
N382        C386   1.365       .  A
Mn383      Cl385   2.557       .  S
Mn384      Cl385   2.573       .  S
C387        C506   1.462       .  S
N388        N389   1.332       .  A
N388        N394   1.319       .  A
N388       Mn417   2.259       .  S
N389        C396   1.362       .  A
N390        N392   1.317       .  A
N390        N391   1.314       .  A
N390       Mn406   2.185       .  S
N391        C397   1.349       .  A
N392        N393   1.318       .  A
N392       Mn417   2.194       .  S
N393        C397   1.352       .  A
N394        N395   1.331       .  A
N394       Mn406   2.251       .  S
N395        C396   1.359       .  A
C397        C637   1.461       .  S
N398        N404   1.318       .  A
N398        N399   1.332       .  A
N398       Mn428   2.261       .  S
N399        C407   1.362       .  A
N400        N401   1.318       .  A
N400        N402   1.318       .  A
N400       Mn406   2.193       .  S
N401        C408   1.351       .  A
N402        N403   1.314       .  A
N402       Mn428   2.192       .  S
N403        C408   1.350       .  A
N404        N405   1.332       .  A
N404       Mn406   2.255       .  S
N405        C407   1.361       .  A
Mn406      Cl430   2.566       .  S
C408        C941   1.464       .  S
N409        N410   1.328       .  A
N409        N415   1.319       .  A
N409       Mn417   2.241       .  S
N410        C418   1.356       .  A
N411        N413   1.319       .  A
N411        N412   1.318       .  A
N411       Mn429   2.201       .  S
N412        C419   1.349       .  A
N413        N414   1.318       .  A
N413       Mn417   2.197       .  S
N414        C419   1.351       .  A
N415        N416   1.331       .  A
N415       Mn429   2.256       .  S
N416        C418   1.361       .  A
Mn417      Cl430   2.563       .  S
C419        C698   1.460       .  S
N420        N421   1.334       .  A
N420        N426   1.318       .  A
N420       Mn428   2.274       .  S
N421        C431   1.365       .  A
N422        N423   1.323       .  A
N422        N424   1.317       .  A
N422       Mn429   2.221       .  S
N423        C432   1.358       .  A
N424        N425   1.313       .  A
N424       Mn428   2.177       .  S
N425        C432   1.346       .  A
N426        N427   1.330       .  A
N426       Mn429   2.243       .  S
N427        C431   1.358       .  A
Mn428      Cl430   2.557       .  S
Mn429      Cl430   2.562       .  S
C432        C573   1.480       .  S
C433        C434   1.542       .  S
C433        C439   1.526       .  S
C433        C437   1.544       .  S
C433        C477   1.520       .  S
C434        H441   1.082       .  S
C434        C435   1.362       .  D
C435        C436   1.520       .  S
C435        C765   1.453       .  S
C436        C440   1.516       .  S
C436        C438   1.523       .  S
C436        H442   1.110       .  S
C437        H443   1.086       .  S
C437        C438   1.365       .  D
C438        C781   1.468       .  S
C439        H444   1.087       .  S
C439        C440   1.357       .  D
C440        C893   1.449       .  S
C445        C446   1.523       .  S
C445        C451   1.537       .  S
C445        C449   1.536       .  S
C445        C861   1.517       .  S
C446        H453   1.087       .  S
C446        C447   1.351       .  D
C447        C448   1.525       .  S
C447        C730   1.451       .  S
C448        C452   1.528       .  S
C448        C450   1.534       .  S
C448        H454   1.105       .  S
C449        H455   1.086       .  S
C449        C450   1.368       .  D
C450        C461   1.484       .  S
C451        H456   1.080       .  S
C451        C452   1.360       .  D
C452        C794   1.456       .  S
C457        C458   1.396       .  A
C457        C462   1.399       .  A
C457        H464   1.085       .  S
C458        C459   1.403       .  A
C459        C466   1.506       .  S
C459        C460   1.397       .  A
C460        C461   1.408       .  A
C460        H465   1.084       .  S
C461        C462   1.421       .  A
C462        C463   1.506       .  S
C463        H467   1.111       .  S
C463        H468   1.103       .  S
C463        H469   1.106       .  S
C466        H470   1.110       .  S
C466        H471   1.110       .  S
C466        H472   1.111       .  S
C473        C474   1.400       .  A
C473        C478   1.393       .  A
C473        H480   1.085       .  S
C474        C475   1.403       .  A
C475        C482   1.508       .  S
C475        C476   1.397       .  A
C476        C477   1.413       .  A
C476        H481   1.077       .  S
C477        C478   1.422       .  A
C478        C479   1.513       .  S
C479        H483   1.111       .  S
C479        H484   1.103       .  S
C479        H485   1.110       .  S
C482        H486   1.111       .  S
C482        H487   1.109       .  S
C482        H488   1.111       .  S
C489        C490   1.406       .  A
C489        C494   1.398       .  A
C489        H496   1.084       .  S
C490        C491   1.420       .  A
C491        C498   1.508       .  S
C491        C492   1.400       .  A
C492        C493   1.397       .  A
C492        H497   1.085       .  S
C493        C494   1.409       .  A
C494        C495   1.508       .  S
C495        H499   1.111       .  S
C495        H500   1.109       .  S
C495        H501   1.110       .  S
C498        H502   1.110       .  S
C498        H503   1.110       .  S
C498        H504   1.111       .  S
C505        C506   1.396       .  A
C505        C510   1.399       .  A
C505        H512   1.085       .  S
C506        C507   1.411       .  A
C507        C514   1.510       .  S
C507        C508   1.396       .  A
C508        C509   1.408       .  A
C508        H513   1.082       .  S
C509        C510   1.423       .  A
C510        C511   1.508       .  S
C511        H515   1.111       .  S
C511        H516   1.110       .  S
C511        H517   1.106       .  S
C514        H518   1.110       .  S
C514        H519   1.110       .  S
C514        H520   1.111       .  S
C521        C522   1.397       .  A
C521        C526   1.386       .  A
C521        H528   1.084       .  S
C522        C523   1.404       .  A
C523        C530   1.506       .  S
C523        C524   1.389       .  A
C524        C525   1.401       .  A
C524        H529   1.084       .  S
C525        C526   1.410       .  A
C526        C527   1.510       .  S
C527        H531   1.111       .  S
C527        H532   1.111       .  S
C527        H533   1.109       .  S
C530        H534   1.109       .  S
C530        H535   1.110       .  S
C530        H536   1.111       .  S
C537        C538   1.414       .  A
C537        C542   1.391       .  A
C537        H544   1.078       .  S
C538        C539   1.421       .  A
C539        C546   1.514       .  S
C539        C540   1.388   1_655  A
C540        C541   1.398       .  A
C540        H545   1.085       .  S
C541        C542   1.399   1_455  A
C542        C543   1.509   1_655  S
C543        H547   1.111   1_455  S
C543        H548   1.111       .  S
C543        H549   1.109   1_455  S
C546        H550   1.111   1_655  S
C546        H551   1.103       .  S
C546        H552   1.110       .  S
C553        C554   1.400       .  A
C553        C558   1.399       .  A
C553        H560   1.085       .  S
C554        C555   1.401       .  A
C555        C562   1.508   1_655  S
C555        C556   1.392       .  A
C556        C557   1.409       .  A
C556        H561   1.084       .  S
C557        C558   1.410       .  A
C558        C559   1.507       .  S
C559        H563   1.111       .  S
C559        H564   1.107       .  S
C559        H565   1.110       .  S
C562        H566   1.110       .  S
C562        H567   1.111       .  S
C562        H568   1.111       .  S
C569        C570   1.399       .  A
C569        C574   1.397       .  A
C569        H576   1.085       .  S
C570        C571   1.417       .  A
C571        C578   1.503       .  S
C571        C572   1.404       .  A
C572        C573   1.401       .  A
C572        H577   1.084       .  S
C573        C574   1.421       .  A
C574        C575   1.510       .  S
C575        H579   1.111       .  S
C575        H580   1.110       .  S
C575        H581   1.110       .  S
C578        H582   1.105       .  S
C578        H583   1.105       .  S
C578        H584   1.111       .  S
C585        C586   1.402       .  A
C585        C590   1.396       .  A
C585        H592   1.084       .  S
C586        C587   1.421       .  A
C587        C594   1.510       .  S
C587        C588   1.390       .  A
C588        C589   1.392       .  A
C588        H593   1.085       .  S
C589        C590   1.406       .  A
C590        C591   1.502       .  S
C591        H595   1.111       .  S
C591        H596   1.103       .  S
C591        H597   1.110       .  S
C594        H598   1.110       .  S
C594        H599   1.110       .  S
C594        H600   1.111       .  S
C601        C602   1.401       .  A
C601        C606   1.399   1_565  A
C601        H608   1.085       .  S
C602        C603   1.415       .  A
C603        C610   1.513       .  S
C603        C604   1.386       .  A
C604        C605   1.400       .  A
C604        H609   1.085       .  S
C605        C606   1.413   1_565  A
C606        C607   1.508       .  S
C607        H611   1.111       .  S
C607        H612   1.110       .  S
C607        H613   1.108       .  S
C610        H614   1.105       .  S
C610        H615   1.110       .  S
C610        H616   1.111       .  S
C617        C618   1.401       .  A
C617        C622   1.403       .  A
C617        H624   1.084       .  S
C618        C619   1.407       .  A
C619        C626   1.508       .  S
C619        C620   1.396       .  A
C620        C621   1.407       .  A
C620        H625   1.084   1_565  S
C621        C622   1.415       .  A
C622        C623   1.507       .  S
C623        H627   1.111       .  S
C623        H628   1.110       .  S
C623        H629   1.109       .  S
C626        H630   1.108       .  S
C626        H631   1.110       .  S
C626        H632   1.111   1_565  S
C633        C634   1.413       .  A
C633        C638   1.396       .  A
C633        H640   1.076       .  S
C634        C635   1.426       .  A
C635        C642   1.513       .  S
C635        C636   1.396       .  A
C636        C637   1.396       .  A
C636        H641   1.085       .  S
C637        C638   1.406       .  A
C638        C639   1.510       .  S
C639        H643   1.111       .  S
C639        H644   1.110       .  S
C639        H645   1.108       .  S
C642        H646   1.102       .  S
C642        H647   1.110       .  S
C642        H648   1.111       .  S
C649        C650   1.399       .  A
C649        C654   1.402       .  A
C649        H656   1.083       .  S
C650        C651   1.409       .  A
C651        C658   1.507       .  S
C651        C652   1.389       .  A
C652        C653   1.400       .  A
C652        H657   1.085       .  S
C653        C654   1.415       .  A
C654        C655   1.507       .  S
C655        H659   1.111       .  S
C655        H660   1.110       .  S
C655        H661   1.110       .  S
C658        H662   1.110       .  S
C658        H663   1.107       .  S
C658        H664   1.110       .  S
C665        C666   1.397       .  A
C665        C670   1.397       .  A
C665        H672   1.085       .  S
C666        C667   1.411       .  A
C667        C674   1.508       .  S
C667        C668   1.395       .  A
C668        C669   1.398       .  A
C668        H673   1.085       .  S
C669        C670   1.413       .  A
C670        C671   1.508       .  S
C671        H675   1.111       .  S
C671        H676   1.109   1_556  S
C671        H677   1.111       .  S
C674        H678   1.110       .  S
C674        H679   1.107       .  S
C674        H680   1.110       .  S
C681        C682   1.411       .  A
C681        C686   1.393   1_556  A
C681        H688   1.076       .  S
C682        C683   1.424       .  A
C683        C690   1.510       .  S
C683        C684   1.391       .  A
C684        C685   1.395       .  A
C684        H689   1.085       .  S
C685        C686   1.404   1_556  A
C686        C687   1.509       .  S
C687        H691   1.111       .  S
C687        H692   1.109       .  S
C687        H693   1.110       .  S
C690        H694   1.097       .  S
C690        H695   1.111       .  S
C690        H696   1.110       .  S
C697        C698   1.399       .  A
C697        C702   1.402       .  A
C697        H704   1.085       .  S
C698        C699   1.409       .  A
C699        C706   1.509       .  S
C699        C700   1.395       .  A
C700        C701   1.401       .  A
C700        H705   1.084       .  S
C701        C702   1.418       .  A
C702        C703   1.508       .  S
C703        H707   1.110       .  S
C703        H708   1.106       .  S
C703        H709   1.111       .  S
C706        H710   1.111       .  S
C706        H711   1.109       .  S
C706        H712   1.111       .  S
C713        C714   1.388       .  A
C713        C718   1.393       .  A
C713        H720   1.085       .  S
C714        C715   1.404       .  A
C715        C722   1.511       .  S
C715        C716   1.386       .  A
C716        C717   1.405       .  A
C716        H721   1.077       .  S
C717        C718   1.428       .  A
C718        C719   1.510       .  S
C719        H723   1.111       .  S
C719        H724   1.101       .  S
C719        H725   1.111       .  S
C722        H726   1.110       .  S
C722        H727   1.110       .  S
C722        H728   1.111       .  S
C729        C730   1.397       .  A
C729        C734   1.392       .  A
C729        H736   1.085       .  S
C730        C731   1.409       .  A
C731        C738   1.506   1_554  S
C731        C732   1.395   1_554  A
C732        C733   1.397   1_556  A
C732        H737   1.084   1_545  S
C733        C734   1.409       .  A
C734        C735   1.508       .  S
C735        H739   1.111       .  S
C735        H740   1.110       .  S
C735        H741   1.110   1_545  S
C738        H742   1.106       .  S
C738        H743   1.109   1_556  S
C738        H744   1.111       .  S
C745        C746   1.401       .  A
C745        C750   1.391   1_556  A
C745        H752   1.085       .  S
C746        C747   1.410   1_556  A
C747        C754   1.509       .  S
C747        C748   1.395       .  A
C748        C749   1.401       .  A
C748        H753   1.083       .  S
C749        C750   1.412       .  A
C750        C751   1.510       .  S
C751        H755   1.111   1_554  S
C751        H756   1.110       .  S
C751        H757   1.106       .  S
C754        H758   1.109       .  S
C754        H759   1.110   1_554  S
C754        H760   1.111       .  S
C761        C762   1.401       .  A
C761        C766   1.384       .  A
C761        H768   1.085       .  S
C762        C763   1.407   1_545  A
C763        C770   1.507       .  S
C763        C764   1.397   1_565  A
C764        C765   1.402       .  A
C764        H769   1.084       .  S
C765        C766   1.409       .  A
C766        C767   1.511       .  S
C767        H771   1.111       .  S
C767        H772   1.111       .  S
C767        H773   1.106       .  S
C770        H774   1.109       .  S
C770        H775   1.110       .  S
C770        H776   1.111       .  S
C777        C778   1.399       .  A
C777        C782   1.394       .  A
C777        H784   1.084       .  S
C778        C779   1.418       .  A
C779        C786   1.509       .  S
C779        C780   1.397       .  A
C780        C781   1.399       .  A
C780        H785   1.084       .  S
C781        C782   1.412       .  A
C782        C783   1.505       .  S
C783        H787   1.111       .  S
C783        H788   1.106       .  S
C783        H789   1.104       .  S
C786        H790   1.110       .  S
C786        H791   1.110       .  S
C786        H792   1.111       .  S
C793        C794   1.397       .  A
C793        C798   1.397   1_554  A
C793        H800   1.081   1_554  S
C794        C795   1.411       .  A
C795        C802   1.511       .  S
C795        C796   1.386       .  A
C796        C797   1.400   1_554  A
C796        H801   1.085   1_455  S
C797        C798   1.412       .  A
C798        C799   1.508       .  S
C799        H803   1.111       .  S
C799        H804   1.109       .  S
C799        H805   1.111       .  S
C802        H806   1.108       .  S
C802        H807   1.110   1_455  S
C802        H808   1.111       .  S
C809        C810   1.398       .  A
C809        C814   1.396       .  A
C809        H816   1.085       .  S
C810        C811   1.413       .  A
C811        C818   1.505   1_554  S
C811        C812   1.399   1_554  A
C812        C813   1.401   1_556  A
C812        H817   1.084       .  S
C813        C814   1.419       .  A
C814        C815   1.509       .  S
C815        H819   1.111       .  S
C815        H820   1.110       .  S
C815        H821   1.110       .  S
C818        H822   1.107       .  S
C818        H823   1.104       .  S
C818        H824   1.111       .  S
C825        C826   1.391   1_655  A
C825        C830   1.392   1_655  A
C825        H832   1.085       .  S
C826        C827   1.405       .  A
C827        C834   1.509       .  S
C827        C828   1.388       .  A
C828        C829   1.400       .  A
C828        H833   1.084       .  S
C829        C830   1.419       .  A
C830        C831   1.507       .  S
C831        H835   1.111   1_455  S
C831        H836   1.101       .  S
C831        H837   1.110       .  S
C834        H838   1.110       .  S
C834        H839   1.110       .  S
C834        H840   1.111       .  S
C841        C842   1.399       .  A
C841        C846   1.402       .  A
C841        H848   1.085       .  S
C842        C843   1.407       .  A
C843        C850   1.509       .  S
C843        C844   1.395       .  A
C844        C845   1.406       .  A
C844        H849   1.083       .  S
C845        C846   1.417       .  A
C846        C847   1.508       .  S
C847        H851   1.111       .  S
C847        H852   1.108       .  S
C847        H853   1.110       .  S
C850        H854   1.109       .  S
C850        H855   1.108       .  S
C850        H856   1.111       .  S
C857        C858   1.396   1_455  A
C857        C862   1.393   1_565  A
C857        H864   1.084       .  S
C858        C859   1.404   1_565  A
C859        C866   1.512       .  S
C859        C860   1.390       .  A
C860        C861   1.411   1_655  A
C860        H865   1.073       .  S
C861        C862   1.428       .  A
C862        C863   1.518       .  S
C863        H867   1.111   1_545  S
C863        H868   1.105       .  S
C863        H869   1.106       .  S
C866        H870   1.109       .  S
C866        H871   1.110   1_545  S
C866        H872   1.111       .  S
C873        C874   1.398       .  A
C873        C878   1.397   1_655  A
C873        H880   1.085       .  S
C874        C875   1.414   1_655  A
C875        C882   1.510       .  S
C875        C876   1.391       .  A
C876        C877   1.396       .  A
C876        H881   1.085       .  S
C877        C878   1.411       .  A
C878        C879   1.504   1_455  S
C879        H883   1.111       .  S
C879        H884   1.105   1_655  S
C879        H885   1.109       .  S
C882        H886   1.109       .  S
C882        H887   1.110       .  S
C882        H888   1.111       .  S
C889        C890   1.408   1_545  A
C889        C894   1.392       .  A
C889        H896   1.084       .  S
C890        C891   1.418       .  A
C891        C898   1.508       .  S
C891        C892   1.395   1_565  A
C892        C893   1.394       .  A
C892        H897   1.085   1_545  S
C893        C894   1.401       .  A
C894        C895   1.507       .  S
C895        H899   1.111       .  S
C895        H900   1.110       .  S
C895        H901   1.110       .  S
C898        H902   1.110       .  S
C898        H903   1.109       .  S
C898        H904   1.111       .  S
C905        C906   1.401       .  A
C905        C910   1.400   1_565  A
C905        H912   1.083       .  S
C906        C907   1.412       .  A
C907        C914   1.512       .  S
C907        C908   1.384   1_556  A
C908        C909   1.399       .  A
C908        H913   1.085       .  S
C909        C910   1.410   1_564  A
C910        C911   1.507       .  S
C911        H915   1.111       .  S
C911        H916   1.110   1_556  S
C911        H917   1.109       .  S
C914        H918   1.107       .  S
C914        H919   1.110       .  S
C914        H920   1.111   1_556  S
C921        C922   1.396       .  A
C921        C926   1.400   1_565  A
C921        H928   1.083       .  S
C922        C923   1.406       .  A
C923        C930   1.507       .  S
C923        C924   1.395   1_655  A
C924        C925   1.405       .  A
C924        H929   1.083       .  S
C925        C926   1.418   1_465  A
C926        C927   1.508       .  S
C927        H931   1.111       .  S
C927        H932   1.108       .  S
C927        H933   1.110       .  S
C930        H934   1.108       .  S
C930        H935   1.109       .  S
C930        H936   1.111   1_655  S
C937        C938   1.417       .  A
C937        C942   1.400       .  A
C937        H944   1.074       .  S
C938        C939   1.427       .  A
C939        C946   1.514       .  S
C939        C940   1.396       .  A
C940        C941   1.396       .  A
C940        H945   1.085       .  S
C941        C942   1.404       .  A
C942        C943   1.509       .  S
C943        H947   1.111       .  S
C943        H948   1.111       .  S
C943        H949   1.109       .  S
C946        H950   1.107       .  S
C946        H951   1.105       .  S
C946        H952   1.111       .  S
C953        C954   1.399       .  A
C953        C958   1.395       .  A
C953        H960   1.085       .  S
C954        C955   1.418       .  A
C955        C962   1.505   1_556  S
C955        C956   1.401   1_556  A
C956        C957   1.399   1_554  A
C956        H961   1.085       .  S
C957        C958   1.416       .  A
C958        C959   1.509   1_655  S
C959        H963   1.111       .  S
C959        H964   1.110       .  S
C959        H965   1.109       .  S
C962        H966   1.111       .  S
C962        H967   1.106   1_554  S
C962        H968   1.101   1_554  S
