geometry optimzed in LAMMPS
_audit_creation_date              2020-11-30 
_audit_creation_method            'lammps2cif' 
_symmetry_space_group_name_H-M    'P1' 
_symmetry_Int_Tables_number       1 
_symmetry_cell_setting            triclinic 
loop_ 
_symmetry_equiv_pos_as_xyz 
  x,y,z 
_cell_length_a                    28.64422321 
_cell_length_b                    28.476459757216002 
_cell_length_c                    70.03831044655989 
_cell_angle_alpha                 89.84659051860275 
_cell_angle_beta                  90.14770503926155 
_cell_angle_gamma                 91.08647112290794 
loop_ 
_atom_site_label 
_atom_site_type_symbol 
_atom_site_fract_x 
_atom_site_fract_y 
_atom_site_fract_z 
_atom_site_charge 
C1          C  0.03864425  0.98416341  0.10241252     0.01900
C2          C  0.03965527  0.49017946  0.08217085     0.01800
C3          C  0.49587830  0.49282234  0.07154056    -0.18700
C4          C  0.45354786  0.48994540  0.08134984     0.01900
C5          C  0.45450244  0.96592672  0.10137070     0.01800
C6          C  0.99546960  0.98296027  0.11170492    -0.18700
H7          H  0.49632337  0.97185180  0.12686455     0.03900
H8          H  0.99930498  0.48636797  0.05628959     0.03900
O9          O  0.19816839  0.44132171  0.97993262    -0.72200
O10         O  0.29159270  0.44484818  0.01863470    -0.72400
O11         O  0.19876818  0.44301334  0.01859523    -0.72300
O12         O  0.29096079  0.44224404  0.98006203    -0.72300
O13         O  0.29350079  0.00487840  0.98034802    -0.72200
O14         O  0.20277831  0.00582717  0.01971868    -0.72200
O15         O  0.29542208  0.00130742  0.01880412    -0.72200
O16         O  0.20099692  0.00991667  0.98118881    -0.72400
V17         V  0.24487387  0.44428006  0.99929453     1.35200
V18         V  0.24809815  0.00397081  0.99998884     1.35200
C19         C  0.18222325  0.47906547  0.97313777     0.77100
C20         C  0.30801470  0.48375636  0.02457693     0.77100
C21         C  0.18469068  0.48095464  0.02562281     0.77000
C22         C  0.30443730  0.47984381  0.97202383     0.76900
O23         O  0.20332939  0.03575011  0.20169523    -0.72200
O24         O  0.29678705  0.02833515  0.16331174    -0.72400
O25         O  0.20389306  0.03013176  0.16367237    -0.72300
O26         O  0.29904525  0.03516809  0.20137085    -0.72300
O27         O  0.29673466  0.45933502  0.20301191    -0.72200
O28         O  0.19973065  0.45518960  0.16560901    -0.72200
O29         O  0.29265673  0.45514656  0.16498036    -0.72200
O30         O  0.20032460  0.45901310  0.20377880    -0.72400
V31         V  0.25073376  0.03087483  0.18273818     1.35200
V32         V  0.24740809  0.45862606  0.18453962     1.35200
C33         C  0.18431120  0.99872555  0.20841679     0.77100
C34         C  0.31055453  0.98896540  0.15745567     0.77100
C35         C  0.18722853  0.99138686  0.15784964     0.77000
C36         C  0.31687209  0.99799561  0.20771051     0.76900
C37         C  0.03543084  0.47613820  0.91702992     0.01900
C38         C  0.03539389  0.48168902  0.89705065     0.01800
C39         C  0.49399555  0.48626730  0.88700897    -0.18700
C40         C  0.45185667  0.48556777  0.89696481     0.01900
C41         C  0.45224477  0.48069295  0.91696942     0.01800
C42         C  0.49511670  0.48094393  0.92660193    -0.18700
H43         H  0.49558600  0.47970535  0.94208397     0.03900
H44         H  0.49348775  0.48893181  0.87155559     0.03900
O45         O  0.28775423  0.45889280  0.83391664    -0.72200
O46         O  0.19447382  0.46922111  0.79536589    -0.72400
O47         O  0.28995844  0.46552705  0.79592324    -0.72300
O48         O  0.19516471  0.46142898  0.83339574    -0.72300
O49         O  0.19810903  0.03229534  0.83619044    -0.72200
O50         O  0.29616432  0.03906406  0.79962663    -0.72200
O51         O  0.19997652  0.04312060  0.79821401    -0.72200
O52         O  0.29048721  0.02946772  0.83729520    -0.72400
V53         V  0.24181149  0.46528411  0.81449871     1.35200
V54         V  0.24607727  0.03461818  0.81753250     1.35200
C55         C  0.30328954  0.49525199  0.84230026     0.77100
C56         C  0.17903385  0.50897963  0.79052972     0.77100
C57         C  0.31136804  0.50363500  0.79228678     0.77000
C58         C  0.18096793  0.49831128  0.84127613     0.76900
O59         O  0.03476741  0.31085511  0.70432827    -0.72200
O60         O  0.04232224  0.21508170  0.66629549    -0.72400
O61         O  0.03914522  0.30796569  0.66628532    -0.72300
O62         O  0.03887467  0.21256780  0.70434185    -0.72300
O63         O  0.45945444  0.20871657  0.70365581    -0.72200
O64         O  0.46061326  0.30256354  0.66481490    -0.72200
O65         O  0.46340920  0.20986246  0.66575565    -0.72200
O66         O  0.45568669  0.30632717  0.70282094    -0.72400
V67         V  0.03733894  0.26160860  0.68559606     1.35200
V68         V  0.46125309  0.25698037  0.68457839     1.35200
C69         C  0.49218107  0.32728435  0.70882423     0.77100
C70         C  0.50227205  0.19724922  0.65925252     0.77100
C71         C  0.49880942  0.31916221  0.65852153     0.77000
C72         C  0.49725393  0.19006677  0.70902205     0.76900
C73         C  0.50436287  0.05171064  0.60290425     0.01900
C74         C  0.50513427  0.05289244  0.58283934     0.01800
C75         C  0.49264334  0.50789339  0.57232158    -0.18700
C76         C  0.49228689  0.46512106  0.58219218     0.01900
C77         C  0.49746042  0.46521249  0.60222383     0.01800
C78         C  0.49793795  0.50804505  0.61195615    -0.18700
H79         H  0.49958944  0.50820912  0.62743652     0.03900
H80         H  0.49109524  0.50796658  0.55683985     0.03900
O81         O  0.46454933  0.30046652  0.47973942    -0.72200
O82         O  0.46900036  0.20935381  0.51922499    -0.72400
O83         O  0.46225795  0.30196654  0.51844318    -0.72300
O84         O  0.47150770  0.20758266  0.48056422    -0.72300
O85         O  0.04860605  0.21613329  0.48198262    -0.72200
O86         O  0.04039802  0.31111086  0.51924595    -0.72200
O87         O  0.04488359  0.21835761  0.52043858    -0.72200
O88         O  0.04361999  0.30886439  0.48075421    -0.72400
V89         V  0.46827858  0.25495843  0.49948604     1.35200
V90         V  0.04288993  0.26353616  0.50058427     1.35200
C91         C  0.50176630  0.31727283  0.47259531     0.77100
C92         C  0.50724068  0.19955923  0.52718035     0.77100
C93         C  0.49865751  0.32053039  0.52564780     0.77000
C94         C  0.51074226  0.19598894  0.47404106     0.76900
C95         C  0.49231199  0.50796397  0.75218712    -0.02900
C96         C  0.52051745  0.05157059  0.41729605     0.01900
C97         C  0.52049977  0.05141194  0.39721203     0.01800
C98         C  0.51886511  0.50896060  0.38756896    -0.18700
C99         C  0.51535379  0.46550122  0.39688601     0.01900
C100        C  0.50928508  0.46444163  0.41691270     0.01800
C101        C  0.51181834  0.50676901  0.42705898    -0.18700
H102        H  0.50936214  0.50594458  0.44250896     0.03900
H103        H  0.52103068  0.50996533  0.37210249     0.03900
O104        O  0.47615406  0.21312922  0.33556486    -0.72200
O105        O  0.46815569  0.30379025  0.29579848    -0.72400
O106        O  0.46652067  0.20668155  0.29775200    -0.72300
O107        O  0.47698176  0.30622129  0.33355754    -0.72300
O108        O  0.04950546  0.30505478  0.33239032    -0.72200
O109        O  0.04005756  0.21080062  0.29377406    -0.72200
O110        O  0.04181965  0.30869845  0.29437163    -0.72200
O111        O  0.04824979  0.21184084  0.33180920    -0.72400
V112        V  0.47338352  0.25739802  0.31538136     1.35200
V113        V  0.04344559  0.25908536  0.31286292     1.35200
C114        C  0.51515620  0.19716155  0.34070323     0.77100
C115        C  0.50479756  0.32401639  0.28946585     0.77100
C116        C  0.50250721  0.18841082  0.29071877     0.77000
C117        C  0.51631538  0.32098167  0.33942350     0.76900
C118        C  0.49951370  0.00746104  0.24774229    -0.02900
C119        C  0.50249512  0.36961309  0.27872055    -0.06500
C120        C  0.53746144  0.40416341  0.28174818    -0.17700
C121        C  0.53547511  0.44963037  0.27352196     0.10700
C122        C  0.49763278  0.46192525  0.26110239    -0.06400
C123        C  0.96162454  0.42871462  0.25854428    -0.17700
C124        C  0.96337389  0.38391041  0.26698195     0.10700
S125        S  0.58290919  0.49028249  0.27906750    -0.32600
S126        S  0.91770248  0.34229466  0.26066964    -0.31100
H127        H  0.94758318  0.30380891  0.25920334     0.28700
H128        H  0.60364119  0.46411796  0.29377047     0.28700
H129        H  0.56643927  0.39557850  0.29094377     0.19300
H130        H  0.93344004  0.43296147  0.24855251     0.19300
C131        C  0.49897279  0.14288232  0.28016873    -0.06500
C132        C  0.99680064  0.14460830  0.26010567    -0.17700
C133        C  0.99604029  0.10248460  0.24947895     0.10700
C134        C  0.49775557  0.05579796  0.25912556    -0.06400
C135        C  0.49288112  0.05682967  0.27920665    -0.17700
C136        C  0.49406040  0.09910575  0.28962512     0.10700
S137        S  0.99576719  0.10860097  0.22380280    -0.32600
S138        S  0.49093297  0.09456742  0.31520043    -0.32700
H139        H  0.45760600  0.12979033  0.31702978     0.28700
H140        H  0.99500163  0.15787669  0.22265554     0.28700
H141        H  0.99677226  0.17823829  0.25288304     0.19300
H142        H  0.48806166  0.02458878  0.28714392     0.19300
C143        C  0.51693651  0.42327462  0.38468204    -0.06500
C144        C  0.05656006  0.40972619  0.37742135    -0.17700
C145        C  0.05790479  0.37671141  0.36270025     0.10700
C146        C  0.51876821  0.35591861  0.35510147    -0.06400
C147        C  0.47836615  0.36214027  0.36615488    -0.17700
C148        C  0.47666007  0.39614766  0.38043401     0.10700
S149        S  0.11453937  0.36447175  0.35302074    -0.32600
S150        S  0.42112917  0.40564775  0.39158629    -0.32700
H151        H  0.42432632  0.45486463  0.39018945     0.28700
H152        H  0.10166686  0.37730927  0.33433597     0.28700
H153        H  0.08882307  0.42644686  0.38219207     0.19300
H154        H  0.44696562  0.34157983  0.36319044     0.19300
C155        C  0.51826992  0.09430130  0.38562783    -0.06500
C156        C  0.56005023  0.11609767  0.37991696    -0.17700
C157        C  0.56060764  0.15032115  0.36550067     0.10700
C158        C  0.51791091  0.16311301  0.35671432    -0.06400
C159        C  0.97369688  0.14418646  0.36388498    -0.17700
C160        C  0.97418165  0.10982438  0.37817863     0.10700
S161        S  0.61628368  0.17587566  0.35848278    -0.32600
S162        S  0.92041140  0.08018351  0.38506014    -0.32700
H163        H  0.39236509  0.10324888  0.37151500     0.28700
H164        H  0.64356126  0.15494259  0.37278005     0.28700
H165        H  0.59247910  0.10443711  0.38615865     0.19300
H166        H  0.94081269  0.15273948  0.35720061     0.19300
C167        C  0.50016208  0.34947499  0.45608579    -0.06500
C168        C  0.46401724  0.38176424  0.45516713    -0.17700
C169        C  0.46377144  0.41701244  0.44129995     0.10700
C170        C  0.50124504  0.42089170  0.42814584    -0.06400
C171        C  0.04046511  0.39046791  0.42910886    -0.17700
C172        C  0.04038003  0.35514508  0.44299653     0.10700
S173        S  0.41549053  0.45698815  0.44193827    -0.32600
S174        S  0.08637266  0.31290146  0.44197790    -0.32700
H175        H  0.05735526  0.27432511  0.44687548     0.28700
H176        H  0.42054762  0.47526964  0.42343339     0.28700
H177        H  0.43657111  0.38069272  0.46580195     0.19300
H178        H  0.06949404  0.39339403  0.41926419     0.19300
C179        C  0.51440327  0.16329894  0.45767576    -0.06500
C180        C  0.05495149  0.13644949  0.45792227    -0.17700
C181        C  0.05964722  0.10231344  0.44386244     0.10700
C182        C  0.52199353  0.09494333  0.42879097    -0.06400
C183        C  0.48120394  0.12081867  0.43056681    -0.17700
C184        C  0.47747682  0.15576332  0.44443733     0.10700
S185        S  0.11080727  0.06634032  0.44488714    -0.32600
S186        S  0.42523953  0.19003300  0.44404123    -0.32700
H187        H  0.44924250  0.23312223  0.44675843     0.28700
H188        H  0.11205224  0.05655146  0.42522280     0.28700
H189        H  0.08116070  0.13909085  0.46908937     0.19300
H190        H  0.45156511  0.11294218  0.42142696     0.19300
C191        C  0.48955603  0.42186061  0.57071581    -0.06500
C192        C  0.03477162  0.39592461  0.56942323    -0.17700
C193        C  0.03668950  0.36051026  0.55571473     0.10700
C194        C  0.49550306  0.35316378  0.54199753    -0.06400
C195        C  0.45422165  0.37824146  0.54451284    -0.17700
C196        C  0.45069769  0.41204332  0.55883968     0.10700
S197        S  0.08754485  0.32417951  0.55599648    -0.32600
S198        S  0.39639751  0.44280830  0.56082377    -0.32700
H199        H  0.40154954  0.45498563  0.58017312     0.28700
H200        H  0.06211041  0.28211699  0.55284278     0.28700
H201        H  0.06459394  0.40248519  0.57865452     0.19300
H202        H  0.42486722  0.37240912  0.53496591     0.19300
C203        C  0.50950130  0.09677013  0.57177703    -0.06500
C204        C  0.47106027  0.12611457  0.57019850    -0.17700
C205        C  0.47071469  0.16235394  0.55669120     0.10700
C206        C  0.50866475  0.16778023  0.54387242    -0.06400
C207        C  0.04740230  0.13979294  0.54543460    -0.17700
C208        C  0.04828051  0.10448307  0.55930629     0.10700
S209        S  0.42147711  0.20084127  0.55685997    -0.32600
S210        S  0.09934415  0.06861084  0.56186200    -0.32700
H211        H  0.12861507  0.60615889  0.55549448     0.28700
H212        H  0.44814756  0.24165990  0.55278327     0.28700
H213        H  0.44076567  0.11997529  0.57915286     0.19300
H214        H  0.07709650  0.14481136  0.53606992     0.19300
C215        C  0.50024362  0.35183531  0.64208662    -0.06500
C216        C  0.04164995  0.38296806  0.64026980    -0.17700
C217        C  0.04333223  0.41796320  0.62639675     0.10700
C218        C  0.50217976  0.42213055  0.61375077    -0.06400
C219        C  0.46460652  0.39006965  0.61472492    -0.17700
C220        C  0.46388358  0.35412049  0.62836830     0.10700
S221        S  0.09443640  0.45605961  0.62587773    -0.32600
S222        S  0.41641488  0.31180804  0.62708815    -0.32700
H223        H  0.44475933  0.27295671  0.63082678     0.28700
H224        H  0.09160881  0.46704086  0.60632190     0.28700
H225        H  0.07016761  0.38095422  0.65043077     0.19300
H226        H  0.43520550  0.39369382  0.60509999     0.19300
C227        C  0.50361885  0.16293586  0.64345835    -0.06500
C228        C  0.46296951  0.13590092  0.63999056    -0.17700
C229        C  0.46136023  0.10203638  0.62573701     0.10700
C230        C  0.50147126  0.09409731  0.61471850    -0.06400
C231        C  0.04441936  0.12006943  0.61753370    -0.17700
C232        C  0.04679025  0.15421379  0.63199332     0.10700
S233        S  0.40758087  0.06861124  0.62288281    -0.32600
S234        S  0.10127732  0.18598997  0.63572549    -0.32700
H235        H  0.12485538  0.16854275  0.61972115     0.28700
H236        H  0.41390380  0.05718626  0.60356296     0.28700
H237        H  0.43214579  0.14049091  0.64867203     0.19300
H238        H  0.07539050  0.11157249  0.60950473     0.19300
C239        C  0.48913847  0.37286555  0.71933263    -0.06500
C240        C  0.99384562  0.37453827  0.73843946    -0.17700
C241        C  0.99262049  0.41634307  0.74914570     0.10700
C242        C  0.48972645  0.46003448  0.74038109    -0.06400
C243        C  0.48407829  0.45902188  0.72032590    -0.17700
C244        C  0.48357192  0.41656635  0.70992953     0.10700
S245        S  0.99591040  0.40956317  0.77476878    -0.32600
S246        S  0.47671998  0.42064222  0.68446003    -0.32700
H247        H  0.44374727  0.38359784  0.68343065     0.28700
H248        H  0.00939459  0.36235586  0.77538311     0.28700
H249        H  0.99589150  0.34092738  0.74560892     0.19300
H250        H  0.47913642  0.49118639  0.71245429     0.19300
C251        C  0.49642100  0.14349237  0.71934975    -0.06500
C252        C  0.45962490  0.13390365  0.73172672    -0.17700
C253        C  0.45588873  0.09204851  0.74241118     0.10700
C254        C  0.48886475  0.05415647  0.73972741    -0.06400
C255        C  0.02752035  0.06683855  0.72693380    -0.17700
C256        C  0.03190627  0.10964921  0.71679162     0.10700
S257        S  0.41353624  0.09745801  0.76140818    -0.32600
S258        S  0.07776970  0.11422508  0.69934776    -0.32700
H259        H  0.04841309  0.13208763  0.68508421     0.28700
H260        H  0.37933488  0.11982139  0.75033603     0.28700
H261        H  0.43485325  0.16156749  0.73413779     0.19300
H262        H  0.05329864  0.04026909  0.72436560     0.19300
C263        C  0.35674652  0.50322519  0.78232276    -0.06500
C264        C  0.39812738  0.00615841  0.79328340    -0.17700
C265        C  0.44305854  0.00414608  0.78505183     0.10700
C266        C  0.44709976  0.50285855  0.76479803    -0.06400
C267        C  0.40471495  0.49631889  0.75420888    -0.17700
C268        C  0.36047348  0.49684457  0.76259302     0.10700
S269        S  0.49176919  0.00249367  0.80150971    -0.32600
S270        S  0.31017743  0.49168966  0.74712785    -0.32700
H271        H  0.28039553  0.51922228  0.75820356     0.28700
H272        H  0.46634386  0.99651581  0.81852618     0.28700
H273        H  0.39461061  0.01021953  0.80856954     0.19300
H274        H  0.40584534  0.49411177  0.73879341     0.19300
C275        C  0.13590686  0.51290605  0.77865552    -0.06500
C276        C  0.10488603  0.04799282  0.78330159    -0.17700
C277        C  0.06009182  0.04955639  0.77470917     0.10700
C278        C  0.04337292  0.51231535  0.76197061    -0.06400
C279        C  0.07855183  0.47962436  0.75684042    -0.17700
C280        C  0.12307868  0.47910413  0.76502626     0.10700
S281        S  0.02513091  0.09994477  0.78004646    -0.32600
S282        S  0.16276821  0.43521672  0.75666050    -0.32700
H283        H  0.20294243  0.46419418  0.75807165     0.28700
H284        H  0.06036297  0.12772412  0.78866975     0.28700
H285        H  0.11490543  0.07429158  0.79373554     0.19300
H286        H  0.07329501  0.45410884  0.74567965     0.19300
C287        C  0.40888764  0.49065587  0.88568630    -0.06500
C288        C  0.37923473  0.45152265  0.88312915    -0.17700
C289        C  0.34297475  0.45243079  0.86971359     0.10700
C290        C  0.33747524  0.49273524  0.85807913    -0.06400
C291        C  0.36041615  0.02783742  0.86463642    -0.17700
C292        C  0.39545776  0.02753308  0.87845674     0.10700
S293        S  0.30478177  0.40155011  0.86848075    -0.32600
S294        S  0.42242336  0.08342247  0.88462685    -0.32700
H295        H  0.44608132  0.06942319  0.90119671     0.28700
H296        H  0.26379169  0.42778396  0.86683514     0.28700
H297        H  0.38502840  0.41984237  0.89132622     0.19300
H298        H  0.35105613  0.06131902  0.85847437     0.19300
C299        C  0.07809228  0.48308500  0.88550601    -0.06500
C300        C  0.11190004  0.01580957  0.88644001    -0.17700
C301        C  0.14756754  0.02010769  0.87292489     0.10700
C302        C  0.14684117  0.49458664  0.85707281    -0.06400
C303        C  0.12347714  0.45118223  0.85970889    -0.17700
C304        C  0.08956946  0.44495524  0.87374623     0.10700
S305        S  0.19076085  0.06609771  0.87646954    -0.32600
S306        S  0.06016132  0.38831211  0.87489247    -0.32700
H307        H  0.04065827  0.39284775  0.89310705     0.28700
H308        H  0.22865261  0.03833535  0.87107840     0.28700
H309        H  0.10910984  0.04209908  0.89750943     0.19300
H310        H  0.13079576  0.42179183  0.85045099     0.19300
C311        C  0.36232415  0.00029570  0.21789829    -0.06500
C312        C  0.40301178  0.00057201  0.20682393    -0.17700
C313        C  0.44809596  0.00563221  0.21489206     0.10700
C314        C  0.45317744  0.00852983  0.23528480    -0.06400
C315        C  0.40936362  0.51198581  0.24598215    -0.17700
C316        C  0.36497786  0.50714269  0.23765360     0.10700
S317        S  0.49584552  0.01244853  0.19810108    -0.32600
S318        S  0.31479866  0.50959467  0.25312642    -0.32700
H319        H  0.28413841  0.48284922  0.24162327     0.28700
H320        H  0.47003390  0.01041918  0.18100492     0.28700
H321        H  0.39901068  0.99776372  0.19149172     0.19300
H322        H  0.41086898  0.51595067  0.26134345     0.19300
C323        C  0.14020093  0.00043392  0.21971334    -0.06500
C324        C  0.10720758  0.96369482  0.21775679    -0.17700
C325        C  0.06225819  0.96548589  0.22590267     0.10700
C326        C  0.04788274  0.00651836  0.23606021    -0.06400
C327        C  0.08266205  0.54158562  0.23905885    -0.17700
C328        C  0.12744732  0.53822310  0.23129656     0.10700
S329        S  0.02387140  0.91521820  0.22187666    -0.32600
S330        S  0.16924562  0.58417421  0.23718787    -0.32700
H331        H  0.20753643  0.55408215  0.23860396     0.28700
H332        H  0.05843472  0.88323985  0.21669763     0.28700
H333        H  0.11622726  0.93365765  0.20916116     0.19300
H334        H  0.07805469  0.57137426  0.24823453     0.19300
C335        C  0.33785418  0.47824083  0.95600474    -0.06500
C336        C  0.36823555  0.44022807  0.95516068    -0.17700
C337        C  0.40299050  0.43826100  0.94131941     0.10700
C338        C  0.40934197  0.47622165  0.92852092    -0.06400
C339        C  0.38080769  0.00701513  0.93084685    -0.17700
C340        C  0.34432596  0.00643243  0.94405555     0.10700
S341        S  0.43871415  0.38671004  0.94090726    -0.32600
S342        S  0.30716285  0.05681101  0.94440852    -0.32700
H343        H  0.26568223  0.03024792  0.94698440     0.28700
H344        H  0.44869831  0.38887164  0.92126044     0.28700
H345        H  0.36542590  0.41200919  0.96553828     0.19300
H346        H  0.38756165  0.03854892  0.92257672     0.19300
C347        C  0.07846344  0.47436439  0.92858949    -0.06500
C348        C  0.08992872  0.01987783  0.93965103    -0.17700
C349        C  0.12256992  0.01916134  0.95449631     0.10700
C350        C  0.14803304  0.47838379  0.95715853    -0.06400
C351        C  0.12513728  0.43568752  0.95268322    -0.17700
C352        C  0.09066869  0.43327721  0.93848509     0.10700
S353        S  0.12860427  0.07200534  0.96846050    -0.32600
S354        S  0.06104244  0.37807736  0.93359053    -0.32700
H355        H  0.09096675  0.34971861  0.94439096     0.28700
H356        H  0.12302761  0.04845255  0.98602985     0.28700
H357        H  0.07026728  0.05148640  0.93714807     0.19300
H358        H  0.13321793  0.40433172  0.96071422     0.19300
C359        C  0.41175119  0.97230561  0.11273509    -0.06500
C360        C  0.40665656  0.01617843  0.12148152    -0.17700
C361        C  0.37414479  0.02277082  0.13597244     0.10700
C362        C  0.34453182  0.98503313  0.14162191    -0.06400
C363        C  0.37276013  0.45332758  0.14107303    -0.17700
C364        C  0.40774123  0.45112332  0.12731422     0.10700
S365        S  0.37543885  0.07864897  0.14790549    -0.32600
S366        S  0.44782967  0.40299495  0.12949910    -0.32700
H367        H  0.47119372  0.40812820  0.11205201     0.28700
H368        H  0.35199104  0.10057456  0.13272356     0.28700
H369        H  0.43042788  0.04487695  0.11779366     0.19300
H370        H  0.37122347  0.42662505  0.15212879     0.19300
C371        C  0.15233554  0.99055021  0.14227156    -0.06500
C372        C  0.12146376  0.02808029  0.14090782    -0.17700
C373        C  0.08621571  0.02864450  0.12711095     0.10700
C374        C  0.08099997  0.99034468  0.11436676    -0.06400
C375        C  0.10972634  0.45844005  0.11533419    -0.17700
C376        C  0.14529436  0.45627939  0.12905767     0.10700
S377        S  0.04831792  0.07869549  0.12711458    -0.32600
S378        S  0.18331567  0.40666085  0.12817928    -0.32700
H379        H  0.22433001  0.43338727  0.13154521     0.28700
H380        H  0.03251940  0.07431566  0.10821740     0.28700
H381        H  0.12413304  0.05688788  0.15096198     0.19300
H382        H  0.10480555  0.42955055  0.10544732     0.19300
C383        C  0.34233359  0.48571372  0.04048448    -0.06500
C384        C  0.36464271  0.44412073  0.04582423    -0.17700
C385        C  0.39830511  0.44387232  0.06029326     0.10700
C386        C  0.41076700  0.48604806  0.06964580    -0.06400
C387        C  0.38112021  0.99319254  0.06897045    -0.17700
C388        C  0.34556240  0.99491102  0.05530616     0.10700
S389        S  0.42637030  0.38930887  0.06547519    -0.32600
S390        S  0.30606338  0.04326698  0.05687653    -0.32700
H391        H  0.26590900  0.01568233  0.05296701     0.28700
H392        H  0.42761373  0.39729987  0.08519839     0.28700
H393        H  0.35645557  0.41152862  0.03848563     0.19300
H394        H  0.38516914  0.02187665  0.07901992     0.19300
C395        C  0.08329796  0.48622929  0.07103252    -0.06500
C396        C  0.08956303  0.44428309  0.06100716    -0.17700
C397        C  0.12176379  0.44143741  0.04613226     0.10700
C398        C  0.15061042  0.48092415  0.04160669    -0.06400
C399        C  0.14158505  0.01212475  0.05078120    -0.17700
C400        C  0.10702737  0.01613855  0.06471690     0.10700
S401        S  0.12057927  0.38777737  0.03253592    -0.32600
S402        S  0.09334010  0.07422992  0.07286723    -0.32700
H403        H  0.04474565  0.06665108  0.07348123     0.28700
H404        H  0.11618181  0.41096573  0.01485807     0.28700
H405        H  0.06641231  0.41451147  0.06381011     0.19300
H406        H  0.15902398  0.04389063  0.04578008     0.19300
C407        C  0.03772048  0.49357054  0.10228063     0.01900
C408        C  0.03978282  0.97774850  0.08242672     0.01800
C409        C  0.49808726  0.96543943  0.07176648    -0.18700
C410        C  0.45521110  0.96148315  0.08125449     0.01900
C411        C  0.45370761  0.49252270  0.10148840     0.01800
C412        C  0.99407156  0.49375747  0.11128768    -0.18700
H413        H  0.49602868  0.50220077  0.12660152     0.03900
H414        H  0.99886266  0.96810296  0.05690395     0.03900
O415        O  0.19472996  0.93403462  0.98021003    -0.72200
O416        O  0.29086198  0.92524134  0.01763400    -0.72400
O417        O  0.19805743  0.92994927  0.01873851    -0.72300
O418        O  0.28761580  0.92892241  0.97892478    -0.72300
O419        O  0.28916567  0.51826522  0.97824944    -0.72200
O420        O  0.20090772  0.51909117  0.01876821    -0.72200
O421        O  0.29397386  0.52076441  0.01668234    -0.72200
O422        O  0.19650228  0.51730839  0.98029158    -0.72400
V423        V  0.24296430  0.93094201  0.99888942     1.35200
V424        V  0.24514288  0.51740851  0.99853348     1.35200
C425        C  0.18196899  0.97366330  0.97406505     0.77100
C426        C  0.30809096  0.96205499  0.02517784     0.77100
C427        C  0.18561716  0.96787455  0.02632967     0.77000
C428        C  0.30478783  0.96693151  0.97242765     0.76900
O429        O  0.20167463  0.53510742  0.20226872    -0.72200
O430        O  0.29447352  0.53134687  0.16372191    -0.72400
O431        O  0.20181398  0.53134975  0.16426802    -0.72300
O432        O  0.29735374  0.53560385  0.20178474    -0.72300
O433        O  0.29769697  0.95899119  0.20332628    -0.72200
O434        O  0.20098843  0.95406519  0.16574312    -0.72200
O435        O  0.29397845  0.95238139  0.16532900    -0.72200
O436        O  0.20154674  0.95973826  0.20386598    -0.72400
V437        V  0.24879105  0.53184076  0.18323182     1.35200
V438        V  0.24856538  0.95778483  0.18473445     1.35200
C439        C  0.18291361  0.49769627  0.20870036     0.77100
C440        C  0.30800884  0.49251310  0.15729627     0.77100
C441        C  0.18549692  0.49275100  0.15810517     0.77000
C442        C  0.31564754  0.49822953  0.20769834     0.76900
C443        C  0.03656784  0.97951705  0.91722194     0.01900
C444        C  0.03642764  0.98132641  0.89710091     0.01800
C445        C  0.49468256  0.98387876  0.88756264    -0.18700
C446        C  0.45250430  0.98087265  0.89746077     0.01900
C447        C  0.45266131  0.97330694  0.91732028     0.01800
C448        C  0.49543513  0.97229416  0.92701035    -0.18700
H449        H  0.49572676  0.96868570  0.94243153     0.03900
H450        H  0.49419826  0.98828577  0.87217027     0.03900
O451        O  0.28924674  0.95403112  0.83337352    -0.72200
O452        O  0.19476381  0.96731373  0.79550365    -0.72400
O453        O  0.29013433  0.96358145  0.79547598    -0.72300
O454        O  0.19654372  0.95637661  0.83339811    -0.72300
O455        O  0.19686464  0.53736606  0.83531368    -0.72200
O456        O  0.29525004  0.54141536  0.79885935    -0.72200
O457        O  0.19920673  0.54519068  0.79728718    -0.72200
O458        O  0.28948476  0.53476675  0.83663918    -0.72400
V459        V  0.24264353  0.96185251  0.81431324     1.35200
V460        V  0.24512307  0.53827718  0.81675866     1.35200
C461        C  0.30468270  0.98958989  0.84232619     0.77100
C462        C  0.17952837  0.00745656  0.79111261     0.77100
C463        C  0.31186605  0.00180276  0.79240768     0.77000
C464        C  0.18259347  0.99270797  0.84173889     0.76900
O465        O  0.03627900  0.81136852  0.70382833    -0.72200
O466        O  0.04100940  0.71523311  0.66589894    -0.72400
O467        O  0.03991820  0.80820498  0.66572183    -0.72300
O468        O  0.03846108  0.71282461  0.70387047    -0.72300
O469        O  0.46035861  0.70856689  0.70287283    -0.72200
O470        O  0.46170772  0.80306104  0.66425528    -0.72200
O471        O  0.46245563  0.71031195  0.66494398    -0.72200
O472        O  0.45825916  0.80607889  0.70231139    -0.72400
V473        V  0.03747638  0.76196504  0.68512234     1.35200
V474        V  0.46219150  0.75706391  0.68389182     1.35200
C475        C  0.49526236  0.82626939  0.70817326     0.77100
C476        C  0.50060245  0.69716266  0.65797595     0.77100
C477        C  0.50001807  0.81907792  0.65782022     0.77000
C478        C  0.49803225  0.68921534  0.70795797     0.76900
C479        C  0.49662047  0.55070740  0.60210304     0.01900
C480        C  0.49603078  0.55057418  0.58205094     0.01800
C481        C  0.50208128  0.01071041  0.57266268    -0.18700
C482        C  0.50093120  0.96741955  0.58212851     0.01900
C483        C  0.50452666  0.96634645  0.60218059     0.01800
C484        C  0.50494867  0.00849690  0.61234836    -0.18700
H485        H  0.50560142  0.00766385  0.62783767     0.03900
H486        H  0.50121437  0.01157990  0.55717880     0.03900
O487        O  0.46749717  0.80534863  0.48037645    -0.72200
O488        O  0.46538918  0.70983721  0.51792070    -0.72400
O489        O  0.46455200  0.80322554  0.51903693    -0.72300
O490        O  0.46925627  0.71217090  0.47935421    -0.72300
O491        O  0.04744288  0.71210306  0.48209167    -0.72200
O492        O  0.03995213  0.80881437  0.51873277    -0.72200
O493        O  0.04229575  0.71581027  0.52057016    -0.72200
O494        O  0.04451114  0.80499783  0.48020248    -0.72400
V495        V  0.46804054  0.75772491  0.49920013     1.35200
V496        V  0.04211073  0.76034904  0.50037538     1.35200
C497        C  0.50558699  0.81916948  0.47304674     0.77100
C498        C  0.50226449  0.69836568  0.52649006     0.77100
C499        C  0.50191047  0.82100099  0.52583573     0.77000
C500        C  0.50817493  0.69686173  0.47385865     0.76900
C501        C  0.49244730  0.00647658  0.75196872    -0.02900
C502        C  0.51648391  0.55020495  0.41777979     0.01900
C503        C  0.51754551  0.55121913  0.39766664     0.01800
C504        C  0.52132765  0.00876744  0.38742525    -0.18700
C505        C  0.51844025  0.96598681  0.39718806     0.01900
C506        C  0.51449633  0.96602029  0.41726749     0.01800
C507        C  0.51774021  0.00879630  0.42708633    -0.18700
H508        H  0.51664045  0.00887907  0.44256519     0.03900
H509        H  0.52252372  0.00889933  0.37193878     0.03900
O510        O  0.47256825  0.71435441  0.33625805    -0.72200
O511        O  0.46628501  0.80430419  0.29611792    -0.72400
O512        O  0.46329040  0.70720008  0.29833712    -0.72300
O513        O  0.47516566  0.80731535  0.33396628    -0.72300
O514        O  0.05279834  0.80665370  0.33253584    -0.72200
O515        O  0.04114913  0.71003458  0.29486957    -0.72200
O516        O  0.04447718  0.80786807  0.29449587    -0.72200
O517        O  0.05010735  0.71320350  0.33294874    -0.72400
V518        V  0.47074750  0.75819723  0.31588373     1.35200
V519        V  0.04568864  0.75942266  0.31350200     1.35200
C520        C  0.51126111  0.69814992  0.34164092     0.77100
C521        C  0.50325799  0.82392569  0.28981213     0.77100
C522        C  0.49910743  0.68847404  0.29131958     0.77000
C523        C  0.51473692  0.82115506  0.33997837     0.76900
C524        C  0.49814423  0.50818679  0.24795581    -0.02900
C525        C  0.50166245  0.86939915  0.27892523    -0.06500
C526        C  0.53592627  0.90428649  0.28251186    -0.17700
C527        C  0.53469072  0.94950571  0.27403177     0.10700
C528        C  0.49790424  0.96146967  0.26102992    -0.06400
C529        C  0.96415541  0.92710927  0.25839080    -0.17700
C530        C  0.96636126  0.88245391  0.26686777     0.10700
S531        S  0.58141133  0.99049065  0.28014717    -0.32600
S532        S  0.92096356  0.84036715  0.26066440    -0.31100
H533        H  0.95091535  0.80184241  0.25965445     0.28700
H534        H  0.60454411  0.96247962  0.29360580     0.28700
H535        H  0.56379703  0.89608274  0.29236531     0.19300
H536        H  0.93583382  0.93073814  0.24845746     0.19300
C537        C  0.49527314  0.64298797  0.28072209    -0.06500
C538        C  0.99974464  0.64558809  0.26099243    -0.17700
C539        C  0.99796845  0.60379703  0.25016229     0.10700
C540        C  0.49508715  0.55612461  0.25953587    -0.06400
C541        C  0.49336262  0.55680400  0.27970099    -0.17700
C542        C  0.49438795  0.59900538  0.29016375     0.10700
S543        S  0.00001161  0.61053566  0.22453029    -0.32600
S544        S  0.49630789  0.59433313  0.31573585    -0.32700
H545        H  0.46203137  0.62824258  0.31849301     0.28700
H546        H  0.99523267  0.65954572  0.22360931     0.28700
H547        H  0.00295986  0.67932177  0.25391873     0.19300
H548        H  0.49154366  0.52438186  0.28769754     0.19300
C549        C  0.51764631  0.92313299  0.38542195    -0.06500
C550        C  0.06113372  0.91497980  0.37626856    -0.17700
C551        C  0.06181752  0.88261561  0.36126433     0.10700
C552        C  0.51791317  0.85585315  0.35579272    -0.06400
C553        C  0.47601750  0.86888764  0.36463965    -0.17700
C554        C  0.47536968  0.90272621  0.37899175     0.10700
S555        S  0.11674386  0.87558034  0.34924314    -0.32600
S556        S  0.41926022  0.91987472  0.38785820    -0.32700
H557        H  0.42956291  0.96828318  0.38803634     0.28700
H558        H  0.09776529  0.88380868  0.33100138     0.28700
H559        H  0.09299584  0.93392093  0.38003002     0.19300
H560        H  0.44293760  0.85381212  0.35993628     0.19300
C561        C  0.51408115  0.59459235  0.38627679    -0.06500
C562        C  0.55416208  0.62217078  0.38287481    -0.17700
C563        C  0.55415295  0.65759017  0.36886400     0.10700
C564        C  0.51321141  0.66475593  0.35788290    -0.06400
C565        C  0.97441263  0.64210208  0.36273875    -0.17700
C566        C  0.97426280  0.60652938  0.37647219     0.10700
S567        S  0.60629172  0.69339499  0.36549794    -0.32600
S568        S  0.92092860  0.57379329  0.38141629    -0.32700
H569        H  0.39137758  0.59185893  0.36738911     0.28700
H570        H  0.63175959  0.67534139  0.38097701     0.28700
H571        H  0.58580456  0.61460277  0.39068477     0.19300
H572        H  0.94252705  0.64917230  0.35502184     0.19300
C573        C  0.50552284  0.85211474  0.45677597    -0.06500
C574        C  0.46890188  0.88391584  0.45546142    -0.17700
C575        C  0.46884656  0.91896201  0.44154118     0.10700
C576        C  0.50683009  0.92303349  0.42871684    -0.06400
C577        C  0.04212406  0.88954221  0.42890887    -0.17700
C578        C  0.04115395  0.85306340  0.44237143     0.10700
S579        S  0.42019183  0.95850817  0.44168837    -0.32600
S580        S  0.08402757  0.80791118  0.44008620    -0.32700
H581        H  0.05364761  0.77099881  0.44566866     0.28700
H582        H  0.42577808  0.97620442  0.42311731     0.28700
H583        H  0.44075059  0.88252361  0.46576298     0.19300
H584        H  0.07031462  0.89146413  0.41862421     0.19300
C585        C  0.51177432  0.66289699  0.45804175    -0.06500
C586        C  0.05387981  0.63393183  0.45741605    -0.17700
C587        C  0.05871375  0.60012818  0.44323507     0.10700
C588        C  0.51928504  0.59275946  0.42988074    -0.06400
C589        C  0.48410582  0.62627068  0.42865347    -0.17700
C590        C  0.48092026  0.66212578  0.44222270     0.10700
S591        S  0.10983007  0.56406537  0.44415414    -0.32600
S592        S  0.43800901  0.70653949  0.43815187    -0.32700
H593        H  0.46689008  0.74398307  0.44440789     0.28700
H594        H  0.11092357  0.55437496  0.42447914     0.28700
H595        H  0.08005618  0.63635368  0.46859830     0.19300
H596        H  0.45836996  0.62400138  0.41733751     0.19300
C597        C  0.49810206  0.92465310  0.57037419    -0.06500
C598        C  0.03430313  0.89561830  0.56855883    -0.17700
C599        C  0.03615740  0.85979575  0.55500761     0.10700
C600        C  0.50105134  0.85463873  0.54198577    -0.06400
C601        C  0.45948656  0.87836255  0.54571628    -0.17700
C602        C  0.45754249  0.91297418  0.55980529     0.10700
S603        S  0.08670198  0.82306912  0.55563699    -0.32600
S604        S  0.40277464  0.94227717  0.56304156    -0.32700
H605        H  0.41112376  0.95825397  0.58172570     0.28700
H606        H  0.06106944  0.78109785  0.55256555     0.28700
H607        H  0.06396977  0.90186068  0.57790883     0.19300
H608        H  0.42851656  0.87085300  0.53727994     0.19300
C609        C  0.49969219  0.59366955  0.57056136    -0.06500
C610        C  0.45941882  0.61912563  0.56692052    -0.17700
C611        C  0.45965493  0.65515576  0.55334442     0.10700
C612        C  0.50083871  0.66491001  0.54269155    -0.06400
C613        C  0.04511211  0.64349845  0.54804472    -0.17700
C614        C  0.04593664  0.60894797  0.56226684     0.10700
S615        S  0.40640076  0.68722453  0.55059214    -0.32600
S616        S  0.09989694  0.58024056  0.56810189    -0.32700
H617        H  0.12670530  0.09158927  0.54790859     0.28700
H618        H  0.42918679  0.73141032  0.54972418     0.28700
H619        H  0.42738063  0.61011231  0.57438341     0.19300
H620        H  0.07707707  0.65265958  0.54060598     0.19300
C621        C  0.50199332  0.85227662  0.64156553    -0.06500
C622        C  0.04444324  0.88151426  0.63883517    -0.17700
C623        C  0.04683862  0.91579786  0.62463773     0.10700
C624        C  0.50720666  0.92260221  0.61331493    -0.06400
C625        C  0.46727879  0.89375471  0.61482834    -0.17700
C626        C  0.46462257  0.85799949  0.62851830     0.10700
S627        S  0.10006566  0.95052228  0.62285569    -0.32600
S628        S  0.41298322  0.82090414  0.62829904    -0.32700
H629        H  0.43777908  0.77904787  0.63064894     0.28700
H630        H  0.09513393  0.96197802  0.60341696     0.28700
H631        H  0.07373368  0.87819437  0.64853451     0.19300
H632        H  0.43748070  0.90000560  0.60569268     0.19300
C633        C  0.49994335  0.66313473  0.64206320    -0.06500
C634        C  0.45932293  0.63533482  0.63970243    -0.17700
C635        C  0.45597395  0.60151275  0.62547139     0.10700
C636        C  0.49450649  0.59391996  0.61351161    -0.06400
C637        C  0.04087645  0.61746583  0.61832402    -0.17700
C638        C  0.04430150  0.65174695  0.63262307     0.10700
S639        S  0.40218928  0.56763525  0.62383312    -0.32600
S640        S  0.10063292  0.67926554  0.63719869    -0.32700
H641        H  0.12614864  0.65448714  0.62350485     0.28700
H642        H  0.40592135  0.55696133  0.60431395     0.28700
H643        H  0.42994692  0.63930791  0.64923303     0.19300
H644        H  0.07183425  0.60668696  0.61079545     0.19300
C645        C  0.49287632  0.87184733  0.71878006    -0.06500
C646        C  0.99558031  0.87482015  0.73835379    -0.17700
C647        C  0.99414915  0.91637718  0.74918741     0.10700
C648        C  0.49020188  0.95871563  0.74002201    -0.06400
C649        C  0.48795156  0.95808146  0.71987316    -0.17700
C650        C  0.48941289  0.91581832  0.70938933     0.10700
S651        S  0.99762713  0.90901998  0.77476335    -0.32600
S652        S  0.48750033  0.92037545  0.68382322    -0.32700
H653        H  0.45224133  0.88571939  0.68196637     0.28700
H654        H  0.01364395  0.86263956  0.77508276     0.28700
H655        H  0.99721510  0.84102882  0.74544308     0.19300
H656        H  0.48472525  0.99040754  0.71195420     0.19300
C657        C  0.49688648  0.64317692  0.71859385    -0.06500
C658        C  0.46109352  0.63525557  0.73161701    -0.17700
C659        C  0.45751098  0.59424002  0.74280848     0.10700
C660        C  0.48895030  0.55523749  0.73977244    -0.06400
C661        C  0.02666397  0.56674652  0.72632518    -0.17700
C662        C  0.03128379  0.60972022  0.71624611     0.10700
S663        S  0.41530448  0.60007938  0.76191221    -0.32600
S664        S  0.07823686  0.61477416  0.69931029    -0.32700
H665        H  0.04989435  0.63318082  0.68481771     0.28700
H666        H  0.41972684  0.64902447  0.76437767     0.28700
H667        H  0.43634777  0.66307018  0.73373098     0.19300
H668        H  0.05260109  0.54026104  0.72389044     0.19300
C669        C  0.35716177  0.00180460  0.78234601    -0.06500
C670        C  0.39762394  0.50576738  0.79339048    -0.17700
C671        C  0.44263511  0.50468376  0.78519420     0.10700
C672        C  0.44735301  0.00124056  0.76466502    -0.06400
C673        C  0.40496603  0.99314017  0.75424795    -0.17700
C674        C  0.36084403  0.99304815  0.76276181     0.10700
S675        S  0.49117347  0.50236387  0.80171733    -0.32600
S676        S  0.31048301  0.98398181  0.74762439    -0.32700
H677        H  0.28068191  0.01331037  0.75788993     0.28700
H678        H  0.46738283  0.51641897  0.81822983     0.28700
H679        H  0.39394696  0.50769135  0.80875269     0.19300
H680        H  0.40593456  0.98967941  0.73886950     0.19300
C681        C  0.13646366  0.01221487  0.77926185    -0.06500
C682        C  0.10460386  0.54918543  0.78226608    -0.17700
C683        C  0.05979919  0.55045360  0.77371591     0.10700
C684        C  0.04400583  0.01210774  0.76252472    -0.06400
C685        C  0.07954169  0.98022813  0.75697754    -0.17700
C686        C  0.12400186  0.97946035  0.76517966     0.10700
S687        S  0.02510878  0.60125381  0.77867524    -0.32600
S688        S  0.16403664  0.93655619  0.75626280    -0.32700
H689        H  0.20398360  0.96562823  0.75816463     0.28700
H690        H  0.06149179  0.63043574  0.78560629     0.28700
H691        H  0.11479050  0.57620726  0.79239780     0.19300
H692        H  0.07461893  0.95561537  0.74548113     0.19300
C693        C  0.40942602  0.98432243  0.88622463    -0.06500
C694        C  0.38685276  0.94263179  0.88055233    -0.17700
C695        C  0.35139755  0.94291630  0.86680800     0.10700
C696        C  0.33882168  0.98598033  0.85817811    -0.06400
C697        C  0.36607609  0.53249735  0.86140149    -0.17700
C698        C  0.40112825  0.53208916  0.87518848     0.10700
S699        S  0.32443895  0.88713665  0.86097859    -0.32600
S700        S  0.43598360  0.58508134  0.87821227    -0.32700
H701        H  0.44815876  0.57700651  0.89738642     0.28700
H702        H  0.27872770  0.90382060  0.86280414     0.28700
H703        H  0.39800251  0.90942981  0.88645579     0.19300
H704        H  0.36186994  0.56400599  0.85292551     0.19300
C705        C  0.07893150  0.97892112  0.88541051    -0.06500
C706        C  0.10177857  0.52621479  0.88326774    -0.17700
C707        C  0.13680233  0.53211242  0.86957148     0.10700
C708        C  0.14894877  0.98812560  0.85752485    -0.06400
C709        C  0.11747795  0.94984053  0.85718197    -0.17700
C710        C  0.08297339  0.94450293  0.87101295     0.10700
S711        S  0.16703505  0.58813308  0.86902041    -0.32600
S712        S  0.04417539  0.89390591  0.86881776    -0.32700
H713        H  0.02625805  0.89409435  0.88744927     0.28700
H714        H  0.21163055  0.56820629  0.86866189     0.28700
H715        H  0.09192790  0.55601475  0.89184806     0.19300
H716        H  0.11898985  0.92430975  0.84576384     0.19300
C717        C  0.36105706  0.50021663  0.21791929    -0.06500
C718        C  0.40188651  0.49962465  0.20693647    -0.17700
C719        C  0.44690689  0.50462807  0.21508242     0.10700
C720        C  0.45179070  0.50813350  0.23546372    -0.06400
C721        C  0.41087871  0.01215374  0.24589364    -0.17700
C722        C  0.36642071  0.00696003  0.23764692     0.10700
S723        S  0.49485855  0.51107444  0.19839017    -0.32600
S724        S  0.31639890  0.00859641  0.25322018    -0.32700
H725        H  0.28648138  0.98059627  0.24188014     0.28700
H726        H  0.46899831  0.51142749  0.18129649     0.28700
H727        H  0.39807676  0.49632214  0.19161322     0.19300
H728        H  0.41253891  0.01585396  0.26125966     0.19300
C729        C  0.13904133  0.49917369  0.22017960    -0.06500
C730        C  0.10544011  0.46301858  0.21811488    -0.17700
C731        C  0.06045564  0.46554785  0.22625869     0.10700
C732        C  0.04683174  0.50664039  0.23658767    -0.06400
C733        C  0.08293373  0.04245012  0.23826762    -0.17700
C734        C  0.12794715  0.03955001  0.23064313     0.10700
S735        S  0.02101239  0.41628457  0.22195529    -0.32600
S736        S  0.16929120  0.08581671  0.23663414    -0.32700
H737        H  0.20783089  0.05605725  0.23812596     0.28700
H738        H  0.05514084  0.38342961  0.21721622     0.28700
H739        H  0.11390686  0.43304440  0.20937511     0.19300
H740        H  0.07763011  0.07256694  0.24718146     0.19300
C741        C  0.33763142  0.96687805  0.95612518    -0.06500
C742        C  0.36419991  0.92670521  0.95289064    -0.17700
C743        C  0.39935062  0.92665194  0.93907024     0.10700
C744        C  0.40932521  0.96803527  0.92859887    -0.06400
C745        C  0.37740551  0.51290454  0.92855499    -0.17700
C746        C  0.34076499  0.51339453  0.94170306     0.10700
S747        S  0.43114456  0.87317225  0.93577706    -0.32600
S748        S  0.29788537  0.55829973  0.93889295    -0.32700
H749        H  0.26001313  0.52776914  0.94301606     0.28700
H750        H  0.44408526  0.88194326  0.91672305     0.28700
H751        H  0.35846555  0.89547330  0.96150929     0.19300
H752        H  0.38136610  0.54165904  0.91849651     0.19300
C753        C  0.07946249  0.97952389  0.92897120    -0.06500
C754        C  0.10246293  0.51649407  0.93236054    -0.17700
C755        C  0.13776003  0.51897446  0.94618845     0.10700
C756        C  0.14668686  0.97721472  0.95855611    -0.06400
C757        C  0.13752996  0.93741796  0.94716095    -0.17700
C758        C  0.10394384  0.93805942  0.93255329     0.10700
S759        S  0.16824679  0.57460921  0.94943482    -0.32600
S760        S  0.09040989  0.88510847  0.91942102    -0.32700
H761        H  0.12657936  0.85795803  0.92699296     0.28700
H762        H  0.15291619  0.59595167  0.93245152     0.28700
H763        H  0.09185104  0.54815027  0.92510413     0.19300
H764        H  0.15605677  0.90534153  0.94996172     0.19300
C765        C  0.41150330  0.48702163  0.11332440    -0.06500
C766        C  0.37907237  0.52323480  0.11320903    -0.17700
C767        C  0.34347582  0.52477991  0.12675753     0.10700
C768        C  0.34131419  0.49040626  0.14134977    -0.06400
C769        C  0.34781985  0.94178811  0.13200201    -0.17700
C770        C  0.38158690  0.93479441  0.11791524     0.10700
S771        S  0.30192107  0.57122464  0.12447235    -0.32600
S772        S  0.38590377  0.87688162  0.10785450    -0.32700
H773        H  0.43490165  0.87712240  0.10699178     0.28700
H774        H  0.26307326  0.54269598  0.12935145     0.28700
H775        H  0.38252971  0.55166648  0.10302940     0.19300
H776        H  0.32499584  0.91255481  0.13593105     0.19300
C777        C  0.15024874  0.49269694  0.14267824    -0.06500
C778        C  0.12073074  0.53131392  0.14157161    -0.17700
C779        C  0.08574119  0.53385705  0.12779702     0.10700
C780        C  0.07954378  0.49663649  0.11462484    -0.06400
C781        C  0.11294085  0.95368480  0.11524024    -0.17700
C782        C  0.14899320  0.95381449  0.12875846     0.10700
S783        S  0.04938933  0.58507028  0.12849565    -0.32600
S784        S  0.19005546  0.90675428  0.12768140    -0.32700
H785        H  0.22937961  0.93570852  0.13140063     0.28700
H786        H  0.03307797  0.58287263  0.10962311     0.28700
H787        H  0.12427745  0.55961105  0.15182534     0.19300
H788        H  0.10906024  0.92405319  0.10565774     0.19300
C789        C  0.34193296  0.95951274  0.04114878    -0.06500
C790        C  0.37230003  0.92151383  0.04199846    -0.17700
C791        C  0.40751983  0.91946804  0.05583691     0.10700
C792        C  0.41273430  0.95633677  0.06928830    -0.06400
C793        C  0.38870338  0.52757517  0.06441268    -0.17700
C794        C  0.35381188  0.52776950  0.05045041     0.10700
S795        S  0.44589149  0.86989785  0.05487573    -0.32600
S796        S  0.32572286  0.58299044  0.04631568    -0.32700
H797        H  0.28035434  0.56334981  0.04760777     0.28700
H798        H  0.46107476  0.87200953  0.07392856     0.28700
H799        H  0.36962222  0.89389085  0.03140424     0.19300
H800        H  0.39969329  0.56049930  0.07088491     0.19300
C801        C  0.08318340  0.97551891  0.07120915    -0.06500
C802        C  0.09535847  0.93162573  0.06401609    -0.17700
C803        C  0.12926624  0.92735839  0.04977137     0.10700
C804        C  0.15200590  0.96845614  0.04254214    -0.06400
C805        C  0.14658439  0.52186922  0.05266346    -0.17700
C806        C  0.11264266  0.52526661  0.06694137     0.10700
S807        S  0.14107931  0.86919961  0.04084299    -0.32600
S808        S  0.10632233  0.58121970  0.07841428    -0.32700
H809        H  0.05737624  0.58104715  0.07688593     0.28700
H810        H  0.10653698  0.84451845  0.05124969     0.28700
H811        H  0.07644792  0.90076694  0.06906745     0.19300
H812        H  0.16867594  0.55226329  0.04964461     0.19300
C813        C  0.53939457  0.97367304  0.10187127     0.01900
C814        C  0.53824278  0.49884312  0.08126686     0.01800
C815        C  0.99789473  0.48842145  0.07175007    -0.18700
C816        C  0.95436872  0.48829255  0.08078492     0.01900
C817        C  0.95364138  0.97736153  0.10157662     0.01800
C818        C  0.49677151  0.96960638  0.11139252    -0.18700
H819        H  0.99429771  0.98674511  0.12711682     0.03900
H820        H  0.49586401  0.49062490  0.05607385     0.03900
O821        O  0.69545998  0.45045016  0.98037771    -0.72200
O822        O  0.78921256  0.44811770  0.01865349    -0.72400
O823        O  0.69648549  0.45207497  0.01876862    -0.72300
O824        O  0.78804550  0.44631303  0.98010365    -0.72300
O825        O  0.79424987  0.01416093  0.98061421    -0.72200
O826        O  0.70169125  0.01542679  0.01908180    -0.72200
O827        O  0.79428141  0.01203332  0.01914317    -0.72200
O828        O  0.70166429  0.01741278  0.98049646    -0.72400
V829        V  0.74246803  0.45069370  0.99946580     1.35200
V830        V  0.74790439  0.01328253  0.99981318     1.35200
C831        C  0.68235659  0.48894927  0.97333068     0.77100
C832        C  0.80635520  0.48594165  0.02530135     0.77100
C833        C  0.68423562  0.49097248  0.02552408     0.77000
C834        C  0.80489521  0.48338510  0.97268906     0.76900
O835        O  0.70113068  0.03179345  0.20210452    -0.72200
O836        O  0.79365179  0.02798834  0.16361410    -0.72400
O837        O  0.70105975  0.02542719  0.16394294    -0.72300
O838        O  0.79689905  0.03443430  0.20157264    -0.72300
O839        O  0.79793419  0.46771131  0.20150609    -0.72200
O840        O  0.69804766  0.46579246  0.16544671    -0.72200
O841        O  0.79075605  0.46717955  0.16338618    -0.72200
O842        O  0.70160506  0.46593662  0.20357898    -0.72400
V843        V  0.74813381  0.02843782  0.18306172     1.35200
V844        V  0.74714488  0.46810591  0.18370348     1.35200
C845        C  0.68374685  0.99436686  0.20908608     0.77100
C846        C  0.80800276  0.98951403  0.15724246     0.77100
C847        C  0.68581358  0.98587230  0.15825344     0.77000
C848        C  0.81655607  0.99784669  0.20763029     0.76900
C849        C  0.53741358  0.48281553  0.91667538     0.01900
C850        C  0.53675207  0.48358541  0.89656399     0.01800
C851        C  0.99306811  0.48519258  0.88729677    -0.18700
C852        C  0.95048230  0.48423872  0.89701028     0.01900
C853        C  0.95033692  0.47706084  0.91695286     0.01800
C854        C  0.99290471  0.47399516  0.92671916    -0.18700
H855        H  0.99297225  0.47037037  0.94215716     0.03900
H856        H  0.99334436  0.48924094  0.87187442     0.03900
O857        O  0.78796506  0.45920638  0.83338341    -0.72200
O858        O  0.69526024  0.46922710  0.79449804    -0.72400
O859        O  0.79078619  0.46621587  0.79529031    -0.72300
O860        O  0.69549829  0.46088894  0.83248128    -0.72300
O861        O  0.69777110  0.03195784  0.83531683    -0.72200
O862        O  0.79458080  0.03925013  0.79814103    -0.72200
O863        O  0.69848097  0.04140550  0.79721887    -0.72200
O864        O  0.79029041  0.03117683  0.83589840    -0.72400
V865        V  0.74238308  0.46540973  0.81375346     1.35200
V866        V  0.74517188  0.03452434  0.81636153     1.35200
C867        C  0.80335329  0.49576531  0.84169907     0.77100
C868        C  0.67918040  0.50889433  0.78988749     0.77100
C869        C  0.81162677  0.50458146  0.79157523     0.77000
C870        C  0.68158088  0.49750758  0.84061027     0.76900
O871        O  0.53130004  0.30946636  0.70486907    -0.72200
O872        O  0.53898156  0.21452913  0.66666808    -0.72400
O873        O  0.53612135  0.30743543  0.66676803    -0.72300
O874        O  0.53508862  0.21115716  0.70460797    -0.72300
O875        O  0.96318814  0.21087722  0.70391736    -0.72200
O876        O  0.96372318  0.30192652  0.66407702    -0.72200
O877        O  0.96684134  0.20922915  0.66595079    -0.72200
O878        O  0.95919954  0.30825610  0.70201985    -0.72400
V879        V  0.53391217  0.26067211  0.68601554     1.35200
V880        V  0.96469753  0.25767157  0.68429527     1.35200
C881        C  0.99570256  0.32912974  0.70807960     0.77100
C882        C  0.00559599  0.19697984  0.65917603     0.77100
C883        C  0.00181415  0.31900683  0.65791118     0.77000
C884        C  0.00101282  0.19222468  0.70921255     0.76900
C885        C  0.00463447  0.05205976  0.60212586     0.01900
C886        C  0.00432522  0.05283477  0.58204410     0.01800
C887        C  0.00012428  0.50979331  0.57278534    -0.18700
C888        C  0.99857186  0.46688773  0.58248337     0.01900
C889        C  0.00042077  0.46646883  0.60256919     0.01800
C890        C  0.99889684  0.50892322  0.61248829    -0.18700
H891        H  0.99855123  0.50868016  0.62799123     0.03900
H892        H  0.00038580  0.51020778  0.55728443     0.03900
O893        O  0.96783251  0.30529377  0.48035579    -0.72200
O894        O  0.96943988  0.21115060  0.51856031    -0.72400
O895        O  0.96484854  0.30406376  0.51901208    -0.72300
O896        O  0.97297167  0.21235797  0.47995897    -0.72300
O897        O  0.54703321  0.21364182  0.48168679    -0.72200
O898        O  0.53771338  0.30994558  0.51868352    -0.72200
O899        O  0.54444632  0.21733366  0.52039485    -0.72200
O900        O  0.54026258  0.30618010  0.48003257    -0.72400
V901        V  0.97017298  0.25834359  0.49948598     1.35200
V902        V  0.54090496  0.26164412  0.50019746     1.35200
C903        C  0.00551619  0.32132194  0.47336941     0.77100
C904        C  0.00720068  0.20032736  0.52664206     0.77100
C905        C  0.00156035  0.32190513  0.52627243     0.77000
C906        C  0.01236827  0.19961786  0.47397613     0.76900
C907        C  0.99326075  0.50954094  0.75186877    -0.02900
C908        C  0.02174986  0.05351213  0.41806019     0.01900
C909        C  0.02007237  0.05400745  0.39794836     0.01800
C910        C  0.01788378  0.50987275  0.38731715    -0.18700
C911        C  0.01476891  0.46684539  0.39692774     0.01900
C912        C  0.01222576  0.46640264  0.41701498     0.01800
C913        C  0.01686780  0.50872651  0.42697717    -0.18700
H914        H  0.01629586  0.50824053  0.44246564     0.03900
H915        H  0.01805039  0.51036761  0.37182561     0.03900
O916        O  0.97338188  0.21461922  0.33564631    -0.72200
O917        O  0.96624551  0.30537678  0.29565641    -0.72400
O918        O  0.96489798  0.20793626  0.29762763    -0.72300
O919        O  0.97410966  0.30764933  0.33356492    -0.72300
O920        O  0.55243295  0.30418096  0.33189212    -0.72200
O921        O  0.54165118  0.20875405  0.29374602    -0.72200
O922        O  0.54369037  0.30650190  0.29392191    -0.72200
O923        O  0.55102767  0.21067221  0.33166537    -0.72400
V924        V  0.97104552  0.25881440  0.31532120     1.35200
V925        V  0.54575858  0.25751879  0.31260519     1.35200
C926        C  0.01235704  0.19885644  0.34096965     0.77100
C927        C  0.00301464  0.32606109  0.28963255     0.77100
C928        C  0.00116836  0.19011775  0.29058869     0.77000
C929        C  0.01330823  0.32183112  0.33983048     0.76900
C930        C  0.99997658  0.00908744  0.24738596    -0.02900
C931        C  0.00100713  0.37189787  0.27886109    -0.06500
C932        C  0.03576763  0.40654227  0.28213248    -0.17700
C933        C  0.03440857  0.45186353  0.27370551     0.10700
C934        C  0.99714468  0.46418917  0.26098964    -0.06400
C935        C  0.46224593  0.42618468  0.25877049    -0.17700
C936        C  0.46423579  0.38157402  0.26723929     0.10700
S937        S  0.08152768  0.49266599  0.27953093    -0.32600
S938        S  0.41773254  0.34027277  0.26154275    -0.31100
H939        H  0.44714836  0.30152945  0.25970388     0.28700
H940        H  0.10569947  0.46409760  0.29246778     0.28700
H941        H  0.06411613  0.39811357  0.29170875     0.19300
H942        H  0.43380525  0.42992921  0.24891778     0.19300
C943        C  0.99834594  0.14449068  0.27998404    -0.06500
C944        C  0.50061399  0.14300683  0.26031196    -0.17700
C945        C  0.49918304  0.10093894  0.24970846     0.10700
C946        C  0.99775536  0.05732676  0.25886922    -0.06400
C947        C  0.99618020  0.05824885  0.27904178    -0.17700
C948        C  0.99744249  0.10054879  0.28946085     0.10700
S949        S  0.50135592  0.10711820  0.22408051    -0.32600
S950        S  0.99955504  0.09604154  0.31504631    -0.32700
H951        H  0.96441852  0.12904675  0.31782677     0.28700
H952        H  0.51332122  0.15519501  0.22317423     0.28700
H953        H  0.50295521  0.17659076  0.25308071     0.19300
H954        H  0.99417285  0.02591689  0.28708624     0.19300
C955        C  0.01410314  0.42410463  0.38512455    -0.06500
C956        C  0.55810346  0.41557161  0.37440026    -0.17700
C957        C  0.55926694  0.38315822  0.35943947     0.10700
C958        C  0.01563015  0.35638668  0.35571034    -0.06400
C959        C  0.97336429  0.36911177  0.36436784    -0.17700
C960        C  0.97208888  0.40324661  0.37861695     0.10700
S961        S  0.61221046  0.38138375  0.34565619    -0.32600
S962        S  0.91562589  0.41990120  0.38729212    -0.32700
H963        H  0.92594241  0.46822041  0.38814601     0.28700
H964        H  0.58897934  0.38551669  0.32801094     0.28700
H965        H  0.58882944  0.43727451  0.37727675     0.19300
H966        H  0.94057273  0.35363905  0.35957054     0.19300
C967        C  0.01695387  0.09719875  0.38646839    -0.06500
C968        C  0.05822049  0.12019312  0.38088511    -0.17700
C969        C  0.05809279  0.15435188  0.36641673     0.10700
C970        C  0.01529713  0.16570565  0.35734734    -0.06400
C971        C  0.47594224  0.14222941  0.36318939    -0.17700
C972        C  0.47578846  0.10751703  0.37730095     0.10700
S973        S  0.11295923  0.18254631  0.35997565    -0.32600
S974        S  0.42165560  0.07800457  0.38381125    -0.32700
H975        H  0.89011352  0.11064922  0.37547461     0.28700
H976        H  0.14226036  0.15310728  0.37057755     0.28700
H977        H  0.09079473  0.10979852  0.38738706     0.19300
H978        H  0.44317924  0.15171263  0.35662696     0.19300
C979        C  0.00473125  0.35372540  0.45695577    -0.06500
C980        C  0.96751875  0.38472612  0.45543164    -0.17700
C981        C  0.96696428  0.41930050  0.44131505     0.10700
C982        C  0.00480882  0.42339290  0.42842346    -0.06400
C983        C  0.53542224  0.38628163  0.42810438    -0.17700
C984        C  0.53460091  0.35000220  0.44163367     0.10700
S985        S  0.91819245  0.45868496  0.44141329    -0.32600
S986        S  0.57776265  0.30508261  0.43950644    -0.32700
H987        H  0.54768482  0.26826662  0.44545495     0.28700
H988        H  0.92382561  0.47645059  0.42285655     0.28700
H989        H  0.93942659  0.38321661  0.46576638     0.19300
H990        H  0.56385636  0.38843121  0.41794719     0.19300
C991        C  0.01662649  0.16634091  0.45802171    -0.06500
C992        C  0.55623599  0.13912593  0.45508763    -0.17700
C993        C  0.56058584  0.10567337  0.44065392     0.10700
C994        C  0.02437306  0.09646789  0.42986708    -0.06400
C995        C  0.98734303  0.12793727  0.42935693    -0.17700
C996        C  0.98391196  0.16369215  0.44288465     0.10700
S997        S  0.61561423  0.07635603  0.43852771    -0.32600
S998        S  0.93803529  0.20546346  0.43967415    -0.32700
H999        H  0.96566949  0.24454424  0.44518368     0.28700
H1000       H  0.61088438  0.06491913  0.41909208     0.28700
H1001       H  0.58553458  0.14553087  0.46460973     0.19300
H1002       H  0.96019679  0.12403346  0.41868995     0.19300
C1003       C  0.99542869  0.42395698  0.57091852    -0.06500
C1004       C  0.52957376  0.39482935  0.56911450    -0.17700
C1005       C  0.53260528  0.35995496  0.55521467     0.10700
C1006       C  0.99920275  0.35435314  0.54262510    -0.06400
C1007       C  0.95871423  0.38063441  0.54500990    -0.17700
C1008       C  0.95627668  0.41493839  0.55913285     0.10700
S1009       S  0.58441889  0.32507077  0.55544618    -0.32600
S1010       S  0.90303364  0.44755454  0.56089649    -0.32700
H1011       H  0.90787982  0.45920362  0.58031143     0.28700
H1012       H  0.55999668  0.28236370  0.55242727     0.28700
H1013       H  0.55923254  0.40192787  0.57837797     0.19300
H1014       H  0.92923261  0.37544634  0.53548058     0.19300
C1015       C  0.00864076  0.09630175  0.57078128    -0.06500
C1016       C  0.97009581  0.12545826  0.56912499    -0.17700
C1017       C  0.96949652  0.16139764  0.55551533     0.10700
C1018       C  0.00769362  0.16720500  0.54285102    -0.06400
C1019       C  0.54865803  0.14088956  0.54668249    -0.17700
C1020       C  0.54956581  0.10573494  0.56064708     0.10700
S1021       S  0.91941091  0.19877271  0.55530586    -0.32600
S1022       S  0.60126663  0.07110792  0.56380760    -0.32700
H1023       H  0.62418492  0.60107041  0.55451742     0.28700
H1024       H  0.94556151  0.24031528  0.55196465     0.28700
H1025       H  0.93981680  0.11935179  0.57808823     0.19300
H1026       H  0.57845945  0.14600669  0.53738733     0.19300
C1027       C  0.00323234  0.35188527  0.64162890    -0.06500
C1028       C  0.53917603  0.38213344  0.64020302    -0.17700
C1029       C  0.54093728  0.41645588  0.62598813     0.10700
C1030       C  0.00509357  0.42324468  0.61388482    -0.06400
C1031       C  0.96806113  0.39048205  0.61430831    -0.17700
C1032       C  0.96729441  0.35407674  0.62773239     0.10700
S1033       S  0.59306978  0.45292834  0.62453460    -0.32600
S1034       S  0.92018113  0.31142878  0.62607960    -0.32700
H1035       H  0.94856198  0.27272885  0.63001773     0.28700
H1036       H  0.58882242  0.46355418  0.60498870     0.28700
H1037       H  0.56814630  0.37984567  0.65012402     0.19300
H1038       H  0.93905017  0.39399594  0.60446767     0.19300
C1039       C  0.00665945  0.16253774  0.64327081    -0.06500
C1040       C  0.96488960  0.13804171  0.63894937    -0.17700
C1041       C  0.96256072  0.10465317  0.62447616     0.10700
C1042       C  0.00297714  0.09469255  0.61394303    -0.06400
C1043       C  0.54161197  0.12210814  0.61744062    -0.17700
C1044       C  0.54312987  0.15688273  0.63161335     0.10700
S1045       S  0.90737325  0.07411274  0.62089617    -0.32600
S1046       S  0.59529703  0.19316402  0.63402667    -0.32700
H1047       H  0.62202544  0.17064792  0.62007154     0.28700
H1048       H  0.91502169  0.06004834  0.60197450     0.28700
H1049       H  0.93356775  0.14422707  0.64714446     0.19300
H1050       H  0.57216028  0.11550197  0.60885714     0.19300
C1051       C  0.99260896  0.37484239  0.71859690    -0.06500
C1052       C  0.49273644  0.37287896  0.73912071    -0.17700
C1053       C  0.49207876  0.41480481  0.74972271     0.10700
C1054       C  0.99104821  0.46176536  0.73989349    -0.06400
C1055       C  0.98760163  0.46110464  0.71975244    -0.17700
C1056       C  0.98831236  0.41879089  0.70923125     0.10700
S1057       S  0.49842293  0.40823688  0.77522413    -0.32600
S1058       S  0.98431380  0.42336920  0.68367734    -0.32700
H1059       H  0.95193223  0.38598692  0.68188918     0.28700
H1060       H  0.48270644  0.36121651  0.77648117     0.28700
H1061       H  0.49685392  0.33953418  0.74634616     0.19300
H1062       H  0.98373178  0.49343328  0.71189775     0.19300
C1063       C  0.00011234  0.14631144  0.71989885    -0.06500
C1064       C  0.96402039  0.13795082  0.73275160    -0.17700
C1065       C  0.95931188  0.09590226  0.74324784     0.10700
C1066       C  0.99131182  0.05733959  0.74027786    -0.06400
C1067       C  0.52519732  0.06442064  0.72651247    -0.17700
C1068       C  0.52934416  0.10762856  0.71656433     0.10700
S1069       S  0.91648343  0.10093794  0.76212696    -0.32600
S1070       S  0.57688692  0.11399087  0.69997141    -0.32700
H1071       H  0.54882534  0.13234126  0.68537353     0.28700
H1072       H  0.88405707  0.12725679  0.75164994     0.28700
H1073       H  0.94024710  0.16634733  0.73540783     0.19300
H1074       H  0.55165189  0.03843338  0.72411064     0.19300
C1075       C  0.85709751  0.50464530  0.78165327    -0.06500
C1076       C  0.89711889  0.00588091  0.79266870    -0.17700
C1077       C  0.94253132  0.00516585  0.78484093     0.10700
C1078       C  0.94777253  0.50439190  0.76434141    -0.06400
C1079       C  0.90559896  0.49707296  0.75369290    -0.17700
C1080       C  0.86121481  0.49712262  0.76199146     0.10700
S1081       S  0.99018419  0.00253509  0.80177372    -0.32600
S1082       S  0.81122374  0.48940264  0.74652050    -0.32700
H1083       H  0.78049088  0.51663353  0.75727066     0.28700
H1084       H  0.96543565  0.01547561  0.81820473     0.28700
H1085       H  0.89272641  0.00770559  0.80800009     0.19300
H1086       H  0.90698692  0.49420255  0.73829024     0.19300
C1087       C  0.63579363  0.51261638  0.77814633    -0.06500
C1088       C  0.60455445  0.04606809  0.78188764    -0.17700
C1089       C  0.55972783  0.04758426  0.77334778     0.10700
C1090       C  0.54270886  0.51119755  0.76199822    -0.06400
C1091       C  0.57808223  0.47906382  0.75652830    -0.17700
C1092       C  0.62292706  0.47896195  0.76445987     0.10700
S1093       S  0.52555533  0.09892784  0.77803361    -0.32600
S1094       S  0.66290150  0.43579764  0.75572666    -0.32700
H1095       H  0.70278029  0.46518861  0.75712692     0.28700
H1096       H  0.56222976  0.12791080  0.78484283     0.28700
H1097       H  0.61510357  0.07334369  0.79181081     0.19300
H1098       H  0.57259449  0.45368515  0.74533685     0.19300
C1099       C  0.90774009  0.49094361  0.88555276    -0.06500
C1100       C  0.87430010  0.45443559  0.88434801    -0.17700
C1101       C  0.83815867  0.45603367  0.87086100     0.10700
C1102       C  0.83703519  0.49359398  0.85761359    -0.06400
C1103       C  0.86763768  0.02972143  0.86024705    -0.17700
C1104       C  0.90167178  0.03036532  0.87447147     0.10700
S1105       S  0.79390637  0.41027039  0.87173719    -0.32600
S1106       S  0.93619193  0.08362188  0.87726987    -0.32700
H1107       H  0.94710667  0.07673299  0.89664698     0.28700
H1108       H  0.75671127  0.44029771  0.86758285     0.28700
H1109       H  0.87686958  0.42420123  0.89369066     0.19300
H1110       H  0.86392037  0.06066290  0.85137919     0.19300
C1111       C  0.57903210  0.48257180  0.88471538    -0.06500
C1112       C  0.61191749  0.01627318  0.88583929    -0.17700
C1113       C  0.64748258  0.02065702  0.87223571     0.10700
C1114       C  0.64789894  0.49324322  0.85641253    -0.06400
C1115       C  0.61830976  0.45344218  0.85670455    -0.17700
C1116       C  0.58436273  0.44746527  0.87070476     0.10700
S1117       S  0.68936641  0.06809608  0.87520466    -0.32600
S1118       S  0.54775449  0.39512091  0.86918419    -0.32700
H1119       H  0.53052803  0.39552992  0.88792592     0.28700
H1120       H  0.72802760  0.04116302  0.87002015     0.28700
H1121       H  0.60851803  0.04309414  0.89666866     0.19300
H1122       H  0.62085977  0.42705008  0.84565595     0.19300
C1123       C  0.86230336  0.00123862  0.21766321    -0.06500
C1124       C  0.90296541  0.00105668  0.20656842    -0.17700
C1125       C  0.94814423  0.00598448  0.21460804     0.10700
C1126       C  0.95339607  0.00928076  0.23500347    -0.06400
C1127       C  0.91001627  0.51631810  0.24558480    -0.17700
C1128       C  0.86554979  0.51393958  0.23713176     0.10700
S1129       S  0.99583637  0.01227280  0.19776281    -0.32600
S1130       S  0.81556339  0.51869366  0.25262107    -0.32700
H1131       H  0.78214143  0.49784286  0.24045751     0.28700
H1132       H  0.96973036  0.01227766  0.18073020     0.28700
H1133       H  0.89890292  0.99781294  0.19125290     0.19300
H1134       H  0.91148014  0.51958250  0.26098351     0.19300
C1135       C  0.64001105  0.99561302  0.22058895    -0.06500
C1136       C  0.60597474  0.96010087  0.21804332    -0.17700
C1137       C  0.56087664  0.96284635  0.22607238     0.10700
C1138       C  0.54766609  0.00365028  0.23666573    -0.06400
C1139       C  0.58076264  0.54310440  0.23926742    -0.17700
C1140       C  0.62594053  0.54139662  0.23173712     0.10700
S1141       S  0.52085053  0.91415988  0.22145250    -0.32600
S1142       S  0.66608213  0.58843058  0.23810154    -0.32700
H1143       H  0.70537562  0.55962031  0.23935936     0.28700
H1144       H  0.55276891  0.88357560  0.21304817     0.28700
H1145       H  0.61436944  0.93057613  0.20909846     0.19300
H1146       H  0.57473495  0.57285752  0.24825716     0.19300
C1147       C  0.83773864  0.48058025  0.95656267    -0.06500
C1148       C  0.86423448  0.43990679  0.95481373    -0.17700
C1149       C  0.89812549  0.43618866  0.94070489     0.10700
C1150       C  0.90730383  0.47468023  0.92844247    -0.06400
C1151       C  0.88064437  0.01457028  0.93065431    -0.17700
C1152       C  0.84524999  0.01504687  0.94434211     0.10700
S1153       S  0.92935255  0.38183801  0.93938653    -0.32600
S1154       S  0.80930978  0.06628953  0.94501736    -0.32700
H1155       H  0.76731839  0.04051122  0.94748764     0.28700
H1156       H  0.94033389  0.38545300  0.91986761     0.28700
H1157       H  0.85916065  0.41096345  0.96472574     0.19300
H1158       H  0.88744564  0.04566550  0.92206456     0.19300
C1159       C  0.58044247  0.48623509  0.92823031    -0.06500
C1160       C  0.58925968  0.02027053  0.93908575    -0.17700
C1161       C  0.62238066  0.02205019  0.95372875     0.10700
C1162       C  0.64750654  0.48958869  0.95772867    -0.06400
C1163       C  0.64217724  0.44937088  0.94623156    -0.17700
C1164       C  0.60848546  0.44707660  0.93169642     0.10700
S1165       S  0.62569990  0.07541748  0.96746464    -0.32600
S1166       S  0.59924338  0.39307707  0.91870044    -0.32700
H1167       H  0.63782734  0.36927716  0.92617617     0.28700
H1168       H  0.62162966  0.05206492  0.98514283     0.28700
H1169       H  0.56758632  0.05048025  0.93655011     0.19300
H1170       H  0.66360618  0.41919765  0.94898212     0.19300
C1171       C  0.91029511  0.97978626  0.11270035    -0.06500
C1172       C  0.89758496  0.02396015  0.11936407    -0.17700
C1173       C  0.86300440  0.02869333  0.13314742     0.10700
C1174       C  0.84096714  0.98792419  0.14095140    -0.06400
C1175       C  0.84634386  0.46183520  0.13064166    -0.17700
C1176       C  0.88072315  0.45740883  0.11657748     0.10700
S1177       S  0.85083882  0.08774921  0.14051500    -0.32600
S1178       S  0.89104698  0.40082595  0.10604345    -0.32700
H1179       H  0.85118004  0.37783126  0.11350421     0.28700
H1180       H  0.80311776  0.08349456  0.13583708     0.28700
H1181       H  0.91608393  0.05506727  0.11421251     0.19300
H1182       H  0.82625189  0.43099873  0.13488176     0.19300
C1183       C  0.65184048  0.98261978  0.14221082    -0.06500
C1184       C  0.62869719  0.02353723  0.13659309    -0.17700
C1185       C  0.59380591  0.02244740  0.12259673     0.10700
C1186       C  0.58174395  0.97939556  0.11371806    -0.06400
C1187       C  0.60802340  0.46661520  0.11573947    -0.17700
C1188       C  0.64284341  0.46498728  0.12973337     0.10700
S1189       S  0.56633382  0.07740111  0.11700744    -0.32600
S1190       S  0.67737667  0.41278768  0.13061785    -0.32700
H1191       H  0.72014001  0.43765011  0.13226818     0.28700
H1192       H  0.52286817  0.05953488  0.11099997     0.28700
H1193       H  0.63676721  0.05665738  0.14356409     0.19300
H1194       H  0.60068588  0.43551780  0.10735529     0.19300
C1195       C  0.84047825  0.48512005  0.04110750    -0.06500
C1196       C  0.87032425  0.44681438  0.04239342    -0.17700
C1197       C  0.90592754  0.44559604  0.05599361     0.10700
C1198       C  0.91232315  0.48388554  0.06864309    -0.06400
C1199       C  0.88206426  0.00570395  0.06889308    -0.17700
C1200       C  0.84591207  0.00739603  0.05547994     0.10700
S1201       S  0.94284098  0.39478726  0.05582718    -0.32600
S1202       S  0.80746359  0.05667120  0.05675882    -0.32700
H1203       H  0.76666163  0.02968630  0.05325664     0.28700
H1204       H  0.95922792  0.39854223  0.07467927     0.28700
H1205       H  0.86678820  0.41805520  0.03234780     0.19300
H1206       H  0.88771164  0.03524863  0.07839004     0.19300
C1207       C  0.58075307  0.50046393  0.06957289    -0.06500
C1208       C  0.60434617  0.45837208  0.06698735    -0.17700
C1209       C  0.63978158  0.45467016  0.05348524     0.10700
C1210       C  0.65057959  0.49344991  0.04146085    -0.06400
C1211       C  0.62414674  0.01725874  0.04435395    -0.17700
C1212       C  0.58944609  0.01814536  0.05830419     0.10700
S1213       S  0.66950145  0.39950062  0.05257663    -0.32600
S1214       S  0.55325593  0.06940877  0.05895501    -0.32700
H1215       H  0.53268684  0.06120422  0.07680171     0.28700
H1216       H  0.71430322  0.42059372  0.05177296     0.28700
H1217       H  0.59396438  0.42749211  0.07508478     0.19300
H1218       H  0.62779197  0.04684776  0.03467302     0.19300
C1219       C  0.53836756  0.50251354  0.10137105     0.01900
C1220       C  0.53993880  0.97258296  0.08176839     0.01800
C1221       C  0.99783491  0.97199712  0.07231065    -0.18700
C1222       C  0.95465294  0.97153295  0.08160645     0.01900
C1223       C  0.95246873  0.49220064  0.10082583     0.01800
C1224       C  0.49599320  0.49987169  0.11113799    -0.18700
H1225       H  0.99240926  0.49573421  0.12674108     0.03900
H1226       H  0.49882660  0.96419148  0.05628553     0.03900
O1227       O  0.69685046  0.94137025  0.98016925    -0.72200
O1228       O  0.79068818  0.93589786  0.01836087    -0.72400
O1229       O  0.69805304  0.93926759  0.01864138    -0.72300
O1230       O  0.78952914  0.93809722  0.97968120    -0.72300
O1231       O  0.79303685  0.52243321  0.97946798    -0.72200
O1232       O  0.70132454  0.52811554  0.01821502    -0.72200
O1233       O  0.79386009  0.52427470  0.01798264    -0.72200
O1234       O  0.70050247  0.52651862  0.97969794    -0.72400
V1235       V  0.74392162  0.94010568  0.99921934     1.35200
V1236       V  0.74709390  0.52386755  0.99884868     1.35200
C1237       C  0.68373646  0.98033315  0.97355764     0.77100
C1238       C  0.80709781  0.97309101  0.02583589     0.77100
C1239       C  0.68543056  0.97746218  0.02595996     0.77000
C1240       C  0.80619692  0.97612348  0.97299000     0.76900
O1241       O  0.70045120  0.54202815  0.20273884    -0.72200
O1242       O  0.79300498  0.54317592  0.16387039    -0.72400
O1243       O  0.70020163  0.54190425  0.16456508    -0.72300
O1244       O  0.79641017  0.54392714  0.20208106    -0.72300
O1245       O  0.79868006  0.95830113  0.20323157    -0.72200
O1246       O  0.70051986  0.94962608  0.16658517    -0.72200
O1247       O  0.79330115  0.95207911  0.16515272    -0.72200
O1248       O  0.70227221  0.95586499  0.20462710    -0.72400
V1249       V  0.74749024  0.54127892  0.18352810     1.35200
V1250       V  0.74870798  0.95543021  0.18509238     1.35200
C1251       C  0.68305981  0.50370436  0.20894471     0.77100
C1252       C  0.80625837  0.50537860  0.15639477     0.77100
C1253       C  0.68389792  0.50355774  0.15810617     0.77000
C1254       C  0.81598768  0.50632741  0.20702947     0.76900
C1255       C  0.53785135  0.97625688  0.91714991     0.01900
C1256       C  0.53741685  0.98000674  0.89707383     0.01800
C1257       C  0.99400076  0.98568837  0.88738057    -0.18700
C1258       C  0.95153191  0.98510642  0.89711121     0.01900
C1259       C  0.95144787  0.97944671  0.91707656     0.01800
C1260       C  0.99397613  0.97827508  0.92693855    -0.18700
H1261       H  0.99389937  0.97585147  0.94239805     0.03900
H1262       H  0.99398437  0.98883487  0.87194235     0.03900
O1263       O  0.79015308  0.95541406  0.83268754    -0.72200
O1264       O  0.69462912  0.96547959  0.79493208    -0.72400
O1265       O  0.79026839  0.96348627  0.79462928    -0.72300
O1266       O  0.69738178  0.95597729  0.83295141    -0.72300
O1267       O  0.69729182  0.53686384  0.83487757    -0.72200
O1268       O  0.79497838  0.54218135  0.79810351    -0.72200
O1269       O  0.69885513  0.54517025  0.79681417    -0.72200
O1270       O  0.78980372  0.53520438  0.83588271    -0.72400
V1271       V  0.74305287  0.96159117  0.81365124     1.35200
V1272       V  0.74514266  0.53843535  0.81614050     1.35200
C1273       C  0.80507128  0.99181726  0.84125290     0.77100
C1274       C  0.67860471  0.00520063  0.79033949     0.77100
C1275       C  0.81105735  0.00205048  0.79116884     0.77000
C1276       C  0.68305136  0.99232547  0.84118573     0.76900
O1277       O  0.53395077  0.80783932  0.70389480    -0.72200
O1278       O  0.53814141  0.71347683  0.66510610    -0.72400
O1279       O  0.53729252  0.80636521  0.66579718    -0.72300
O1280       O  0.53604433  0.70937768  0.70317113    -0.72300
O1281       O  0.96280428  0.71196754  0.70345740    -0.72200
O1282       O  0.96435017  0.80436713  0.66399805    -0.72200
O1283       O  0.96544745  0.71157247  0.66555480    -0.72200
O1284       O  0.96061797  0.80962526  0.70202922    -0.72400
V1285       V  0.53492992  0.75927412  0.68479321     1.35200
V1286       V  0.96477810  0.75950016  0.68406609     1.35200
C1287       C  0.99756876  0.83000215  0.70788173     0.77100
C1288       C  0.00378732  0.69809170  0.65884541     0.77100
C1289       C  0.00266795  0.82027101  0.65753122     0.77000
C1290       C  0.00042394  0.69262985  0.70863092     0.76900
C1291       C  0.99912856  0.55173323  0.60277206     0.01900
C1292       C  0.00142883  0.55217929  0.58273484     0.01800
C1293       C  0.00016869  0.01056876  0.57198950    -0.18700
C1294       C  0.99902304  0.96735500  0.58150702     0.01900
C1295       C  0.00391646  0.96656508  0.60154030     0.01800
C1296       C  0.00502571  0.00892348  0.61162431    -0.18700
H1297       H  0.00642842  0.00831183  0.62711363     0.03900
H1298       H  0.99862065  0.01131967  0.55650754     0.03900
O1299       O  0.96868629  0.80417643  0.47994062    -0.72200
O1300       O  0.96714918  0.70885679  0.51767384    -0.72400
O1301       O  0.96438646  0.80214683  0.51854716    -0.72300
O1302       O  0.97197548  0.71104761  0.47917538    -0.72300
O1303       O  0.54470898  0.71132643  0.48227277    -0.72200
O1304       O  0.54006960  0.80911664  0.51850522    -0.72200
O1305       O  0.54064010  0.71597717  0.52074391    -0.72200
O1306       O  0.54324895  0.80431339  0.48006795    -0.72400
V1307       V  0.96944418  0.75664351  0.49886162     1.35200
V1308       V  0.54073586  0.76012759  0.50037793     1.35200
C1309       C  0.00680734  0.81907333  0.47294353     0.77100
C1310       C  0.00409549  0.69781327  0.52630339     0.77100
C1311       C  0.00117632  0.82016738  0.52569286     0.77000
C1312       C  0.01125537  0.69692784  0.47362479     0.76900
C1313       C  0.99402379  0.00941805  0.75229450    -0.02900
C1314       C  0.02062631  0.55175422  0.41740857     0.01900
C1315       C  0.01896927  0.55234418  0.39731053     0.01800
C1316       C  0.02071203  0.01158912  0.38798645    -0.18700
C1317       C  0.01918498  0.96842195  0.39754498     0.01900
C1318       C  0.01596922  0.96774902  0.41767051     0.01800
C1319       C  0.01941023  0.01030678  0.42760539    -0.18700
H1320       H  0.01891633  0.00985194  0.44311019     0.03900
H1321       H  0.02106097  0.01218047  0.37247260     0.03900
O1322       O  0.97511322  0.71674459  0.33650438    -0.72200
O1323       O  0.96891761  0.80634706  0.29625798    -0.72400
O1324       O  0.96595352  0.70927032  0.29860770    -0.72300
O1325       O  0.97743775  0.80977251  0.33409182    -0.72300
O1326       O  0.55047192  0.80375681  0.33242078    -0.72200
O1327       O  0.53847253  0.70820833  0.29446183    -0.72200
O1328       O  0.54186863  0.80595363  0.29442531    -0.72200
O1329       O  0.54750074  0.71046067  0.33253008    -0.72400
V1330       V  0.97330168  0.76043609  0.31608921     1.35200
V1331       V  0.54312028  0.75708522  0.31323750     1.35200
C1332       C  0.01380193  0.70065698  0.34195382     0.77100
C1333       C  0.00587473  0.82578346  0.28983714     0.77100
C1334       C  0.00175003  0.69033941  0.29166805     0.77000
C1335       C  0.01691937  0.82410271  0.33999905     0.76900
C1336       C  0.99868822  0.51027549  0.24773143    -0.02900
C1337       C  0.00416370  0.87093447  0.27869550    -0.06500
C1338       C  0.03904211  0.90559340  0.28165856    -0.17700
C1339       C  0.03748299  0.95062367  0.27300387     0.10700
C1340       C  0.99945344  0.96295937  0.26066956    -0.06400
C1341       C  0.46289695  0.92557745  0.25825807    -0.17700
C1342       C  0.46461708  0.88087341  0.26669249     0.10700
S1343       S  0.08533541  0.99092872  0.27825893    -0.32600
S1344       S  0.41986573  0.83867369  0.25988883    -0.31100
H1345       H  0.44996316  0.80022300  0.25924993     0.28700
H1346       H  0.11715030  0.95728026  0.28467474     0.28700
H1347       H  0.06745029  0.89766185  0.29126732     0.19300
H1348       H  0.43533945  0.92927463  0.24793422     0.19300
C1349       C  0.99771646  0.64500789  0.28086917    -0.06500
C1350       C  0.49335102  0.64327360  0.26085687    -0.17700
C1351       C  0.49253317  0.60127452  0.25020930     0.10700
C1352       C  0.99697112  0.55838260  0.25936031    -0.06400
C1353       C  0.99187153  0.55890486  0.27945451    -0.17700
C1354       C  0.99234255  0.60093407  0.29008051     0.10700
S1355       S  0.49201130  0.60790722  0.22458108    -0.32600
S1356       S  0.98746698  0.59570717  0.31560031    -0.32700
H1357       H  0.95575344  0.63241252  0.31741311     0.28700
H1358       H  0.47440192  0.65368035  0.22398162     0.28700
H1359       H  0.49362725  0.67689992  0.25359183     0.19300
H1360       H  0.98712931  0.52639920  0.28725071     0.19300
C1361       C  0.01937523  0.92600101  0.38551340    -0.06500
C1362       C  0.55982278  0.90863935  0.37745550    -0.17700
C1363       C  0.56054580  0.87575607  0.36264113     0.10700
C1364       C  0.01984776  0.85922591  0.35567198    -0.06400
C1365       C  0.97852116  0.86907059  0.36565526    -0.17700
C1366       C  0.97768793  0.90272781  0.38010486     0.10700
S1367       S  0.61679887  0.86296560  0.35270404    -0.32600
S1368       S  0.92193420  0.91614896  0.39037145    -0.32700
H1369       H  0.92914832  0.96510563  0.39021445     0.28700
H1370       H  0.60346319  0.87542820  0.33403235     0.28700
H1371       H  0.59232097  0.92512978  0.38210816     0.19300
H1372       H  0.94598638  0.85151476  0.36181477     0.19300
C1373       C  0.01602521  0.59581015  0.38600089    -0.06500
C1374       C  0.05654791  0.62263416  0.38254321    -0.17700
C1375       C  0.05682025  0.65857998  0.36877512     0.10700
C1376       C  0.01562170  0.66705876  0.35811732    -0.06400
C1377       C  0.47242445  0.63890748  0.36233054    -0.17700
C1378       C  0.47254705  0.60381104  0.37628433     0.10700
S1379       S  0.10963169  0.69332158  0.36533137    -0.32600
S1380       S  0.41998788  0.56941351  0.38082351    -0.32700
H1381       H  0.89228431  0.59748028  0.36836148     0.28700
H1382       H  0.13637339  0.67195054  0.37969304     0.28700
H1383       H  0.08824179  0.61411291  0.39014452     0.19300
H1384       H  0.44075432  0.64489678  0.35431308     0.19300
C1385       C  0.00676038  0.85259487  0.45685194    -0.06500
C1386       C  0.97135839  0.88576607  0.45623526    -0.17700
C1387       C  0.97135295  0.92123812  0.44249623     0.10700
C1388       C  0.00829718  0.92450711  0.42910101    -0.06400
C1389       C  0.54181193  0.88931834  0.42914596    -0.17700
C1390       C  0.54100752  0.85329772  0.44275272     0.10700
S1391       S  0.92406208  0.96230267  0.44357907    -0.32600
S1392       S  0.58571832  0.80979020  0.44122225    -0.32700
H1393       H  0.55583524  0.77178927  0.44601072     0.28700
H1394       H  0.92731667  0.97861843  0.42470763     0.28700
H1395       H  0.94408598  0.88500072  0.46694822     0.19300
H1396       H  0.57077708  0.89197765  0.41926758     0.19300
C1397       C  0.01547197  0.66376834  0.45759703    -0.06500
C1398       C  0.54818006  0.63070755  0.45870366    -0.17700
C1399       C  0.55285153  0.59651523  0.44466668     0.10700
C1400       C  0.02352885  0.59458685  0.42920646    -0.06400
C1401       C  0.98643240  0.62592869  0.42874278    -0.17700
C1402       C  0.98280193  0.66131610  0.44241412     0.10700
S1403       S  0.60195154  0.55795486  0.44670001    -0.32600
S1404       S  0.93660162  0.70274783  0.43931604    -0.32700
H1405       H  0.96422434  0.74202651  0.44459562     0.28700
H1406       H  0.60565847  0.54884560  0.42703840     0.28700
H1407       H  0.57303321  0.63177451  0.47039453     0.19300
H1408       H  0.95940390  0.62209019  0.41799111     0.19300
C1409       C  0.99543599  0.92445033  0.56976836    -0.06500
C1410       C  0.53894446  0.89963869  0.56741749    -0.17700
C1411       C  0.54075046  0.86435674  0.55362996     0.10700
C1412       C  0.99895530  0.85360508  0.54178864    -0.06400
C1413       C  0.95897673  0.88089711  0.54376279    -0.17700
C1414       C  0.95667368  0.91586952  0.55767066     0.10700
S1415       S  0.59477323  0.83321781  0.55193708    -0.32600
S1416       S  0.90396078  0.94946344  0.55884891    -0.32700
H1417       H  0.90821046  0.96158907  0.57823521     0.28700
H1418       H  0.57273285  0.78866615  0.55109150     0.28700
H1419       H  0.57004074  0.90852704  0.57557839     0.19300
H1420       H  0.92974528  0.87588933  0.53407719     0.19300
C1421       C  0.00411717  0.59555442  0.57140871    -0.06500
C1422       C  0.96267820  0.61821825  0.56692369    -0.17700
C1423       C  0.96171703  0.65305947  0.55287941     0.10700
C1424       C  0.00312233  0.66474595  0.54267168    -0.06400
C1425       C  0.54178767  0.64086398  0.54725498    -0.17700
C1426       C  0.54156581  0.60536789  0.56108793     0.10700
S1427       S  0.90644164  0.68062326  0.54884187    -0.32600
S1428       S  0.59424816  0.57355383  0.56606703    -0.32700
H1429       H  0.62972793  0.09636758  0.55089217     0.28700
H1430       H  0.92580302  0.72641824  0.54862010     0.28700
H1431       H  0.93053022  0.60755457  0.57394416     0.19300
H1432       H  0.57358624  0.64856127  0.53945369     0.19300
C1433       C  0.00449171  0.85270476  0.64102307    -0.06500
C1434       C  0.54295547  0.87955120  0.63917218    -0.17700
C1435       C  0.54616090  0.91404205  0.62508023     0.10700
C1436       C  0.00778721  0.92296976  0.61273772    -0.06400
C1437       C  0.96916699  0.89225927  0.61391847    -0.17700
C1438       C  0.96769444  0.85630978  0.62755968     0.10700
S1439       S  0.60021727  0.94745240  0.62339794    -0.32600
S1440       S  0.91862439  0.81585475  0.62665106    -0.32700
H1441       H  0.94562294  0.77590794  0.63015362     0.28700
H1442       H  0.59527152  0.96029459  0.60411262     0.28700
H1443       H  0.57245804  0.87492846  0.64865105     0.19300
H1444       H  0.93954513  0.89707301  0.60450833     0.19300
C1445       C  0.00382452  0.66329963  0.64312506    -0.06500
C1446       C  0.96095064  0.64129844  0.63837529    -0.17700
C1447       C  0.95777995  0.60720662  0.62420431     0.10700
C1448       C  0.99832424  0.59463455  0.61429364    -0.06400
C1449       C  0.53426051  0.62315132  0.61498676    -0.17700
C1450       C  0.53712912  0.65841554  0.62895355     0.10700
S1451       S  0.90136488  0.57930673  0.62030453    -0.32600
S1452       S  0.58787905  0.69705591  0.62952861    -0.32700
H1453       H  0.60720403  0.68246883  0.61212094     0.28700
H1454       H  0.91022672  0.56072606  0.60215993     0.28700
H1455       H  0.92945834  0.64981169  0.64605982     0.19300
H1456       H  0.56365218  0.61705154  0.60570494     0.19300
C1457       C  0.99519515  0.87555079  0.71851778    -0.06500
C1458       C  0.49279314  0.87145270  0.73862828    -0.17700
C1459       C  0.49098395  0.91326479  0.74930564     0.10700
C1460       C  0.99230504  0.96197280  0.74009754    -0.06400
C1461       C  0.98974554  0.96172174  0.71992832    -0.17700
C1462       C  0.99156148  0.91970110  0.70926279     0.10700
S1463       S  0.49422623  0.90634926  0.77491474    -0.32600
S1464       S  0.99005975  0.92480943  0.68368332    -0.32700
H1465       H  0.95671634  0.88846754  0.68140089     0.28700
H1466       H  0.47935829  0.85902322  0.77579647     0.28700
H1467       H  0.49506099  0.83790090  0.74584715     0.19300
H1468       H  0.98592234  0.99417562  0.71212946     0.19300
C1469       C  0.99910971  0.64624839  0.71910988    -0.06500
C1470       C  0.96244169  0.63744660  0.73164848    -0.17700
C1471       C  0.95795171  0.59558421  0.74229509     0.10700
C1472       C  0.99031636  0.55719462  0.73960934    -0.06400
C1473       C  0.52437805  0.56387066  0.72599183    -0.17700
C1474       C  0.52858763  0.60634317  0.71557686     0.10700
S1475       S  0.91514456  0.60118620  0.76111689    -0.32600
S1476       S  0.57408135  0.61020508  0.69793905    -0.32700
H1477       H  0.54519050  0.62975061  0.68388214     0.28700
H1478       H  0.88162315  0.62431272  0.74996059     0.28700
H1479       H  0.93820554  0.66555975  0.73410617     0.19300
H1480       H  0.54981743  0.53700149  0.72338147     0.19300
C1481       C  0.85673380  0.00268375  0.78132795    -0.06500
C1482       C  0.89779500  0.50822327  0.79278041    -0.17700
C1483       C  0.94291390  0.50694350  0.78471522     0.10700
C1484       C  0.94807807  0.00372646  0.76448377    -0.06400
C1485       C  0.90623226  0.99701126  0.75354511    -0.17700
C1486       C  0.86151769  0.99632433  0.76160730     0.10700
S1487       S  0.99094737  0.50459880  0.80145545    -0.32600
S1488       S  0.81216296  0.98885763  0.74575470    -0.32700
H1489       H  0.77946839  0.01207095  0.75708211     0.28700
H1490       H  0.96771671  0.52371589  0.81723002     0.28700
H1491       H  0.89394704  0.51069114  0.80813108     0.19300
H1492       H  0.90818830  0.99495115  0.73813554     0.19300
C1493       C  0.63535475  0.00915710  0.77851436    -0.06500
C1494       C  0.60422183  0.54849276  0.78201241    -0.17700
C1495       C  0.55913818  0.54934810  0.77372336     0.10700
C1496       C  0.54280228  0.00920864  0.76186835    -0.06400
C1497       C  0.57759423  0.97594514  0.75687247    -0.17700
C1498       C  0.62210416  0.97512197  0.76505277     0.10700
S1499       S  0.52422647  0.59968093  0.77906862    -0.32600
S1500       S  0.66114752  0.93042228  0.75688048    -0.32700
H1501       H  0.70158560  0.95914588  0.75785155     0.28700
H1502       H  0.56127232  0.63005127  0.78442768     0.28700
H1503       H  0.61435021  0.57546650  0.79216286     0.19300
H1504       H  0.57207778  0.95012837  0.74588157     0.19300
C1505       C  0.90874704  0.98974079  0.88557979    -0.06500
C1506       C  0.87929548  0.95036150  0.88305948    -0.17700
C1507       C  0.84400137  0.95026033  0.86918037     0.10700
C1508       C  0.83922431  0.98976275  0.85706077    -0.06400
C1509       C  0.86900888  0.53115908  0.85961432    -0.17700
C1510       C  0.90342778  0.53077230  0.87366466     0.10700
S1511       S  0.80597754  0.89924242  0.86798317    -0.32600
S1512       S  0.94144338  0.58188741  0.87544038    -0.32700
H1513       H  0.95131250  0.57665025  0.89500569     0.28700
H1514       H  0.76502799  0.92523925  0.86564469     0.28700
H1515       H  0.88458651  0.91915901  0.89161190     0.19300
H1516       H  0.86765785  0.56095055  0.84998293     0.19300
C1517       C  0.57985079  0.97851364  0.88522444    -0.06500
C1518       C  0.60993199  0.52129740  0.88507435    -0.17700
C1519       C  0.64492665  0.52653395  0.87130683     0.10700
C1520       C  0.64976331  0.98771303  0.85717811    -0.06400
C1521       C  0.61931949  0.94857150  0.85732883    -0.17700
C1522       C  0.58483063  0.94333241  0.87119833     0.10700
S1523       S  0.68497556  0.57567313  0.87384149    -0.32600
S1524       S  0.54711087  0.89182087  0.86951367    -0.32700
H1525       H  0.52965221  0.89236227  0.88821976     0.28700
H1526       H  0.72476113  0.54952389  0.86947567     0.28700
H1527       H  0.60592284  0.54826554  0.89579379     0.19300
H1528       H  0.62149296  0.92229110  0.84621231     0.19300
C1529       C  0.86150175  0.50776230  0.21732775    -0.06500
C1530       C  0.90245993  0.50607217  0.20644507    -0.17700
C1531       C  0.94756175  0.50925353  0.21470635     0.10700
C1532       C  0.95241003  0.51167032  0.23514243    -0.06400
C1533       C  0.91114775  0.01298900  0.24562802    -0.17700
C1534       C  0.86662783  0.00774407  0.23741240     0.10700
S1535       S  0.99581756  0.51476895  0.19809896    -0.32600
S1536       S  0.81668234  0.00869475  0.25301137    -0.32700
H1537       H  0.78828763  0.97807570  0.24212447     0.28700
H1538       H  0.97059013  0.51121602  0.18089560     0.28700
H1539       H  0.89870898  0.50349803  0.19109203     0.19300
H1540       H  0.91293135  0.01683759  0.26099549     0.19300
C1541       C  0.63924071  0.50303347  0.22057107    -0.06500
C1542       C  0.60717361  0.46544243  0.21850448    -0.17700
C1543       C  0.56204960  0.46596754  0.22666178     0.10700
C1544       C  0.54648214  0.50653173  0.23682887    -0.06400
C1545       C  0.58390257  0.03802538  0.23955294    -0.17700
C1546       C  0.62887752  0.03417613  0.23202480     0.10700
S1547       S  0.52491895  0.41474696  0.22266923    -0.32600
S1548       S  0.67155820  0.07867613  0.23867257    -0.32700
H1549       H  0.70954556  0.04804738  0.23916945     0.28700
H1550       H  0.56021466  0.38392500  0.21716785     0.28700
H1551       H  0.61697765  0.43589572  0.20981262     0.19300
H1552       H  0.57947549  0.06743696  0.24889685     0.19300
C1553       C  0.83879502  0.97585870  0.95666537    -0.06500
C1554       C  0.86473936  0.93531828  0.95345419    -0.17700
C1555       C  0.89887265  0.93430481  0.93930245     0.10700
C1556       C  0.90835145  0.97506378  0.92838250    -0.06400
C1557       C  0.87913814  0.51427577  0.92938577    -0.17700
C1558       C  0.84359666  0.51708404  0.94294485     0.10700
S1559       S  0.93053637  0.88058919  0.93633958    -0.32600
S1560       S  0.80647760  0.56741179  0.94173613    -0.32700
H1561       H  0.76510655  0.54155808  0.94547485     0.28700
H1562       H  0.94289700  0.88817384  0.91714211     0.28700
H1563       H  0.85930412  0.90447434  0.96233947     0.19300
H1564       H  0.88558314  0.54365313  0.91981110     0.19300
C1565       C  0.58090405  0.97901428  0.92869607    -0.06500
C1566       C  0.58736628  0.52720205  0.93897933    -0.17700
C1567       C  0.61964206  0.52903700  0.95390668     0.10700
C1568       C  0.64900441  0.98183203  0.95784709    -0.06400
C1569       C  0.64225299  0.94132066  0.94659785    -0.17700
C1570       C  0.60820106  0.93939266  0.93219671     0.10700
S1571       S  0.61983715  0.58100423  0.96854811    -0.32600
S1572       S  0.59781339  0.88551329  0.91924071    -0.32700
H1573       H  0.63569654  0.86082458  0.92683016     0.28700
H1574       H  0.61849370  0.55585730  0.98588388     0.28700
H1575       H  0.56488317  0.55686567  0.93660445     0.19300
H1576       H  0.66289311  0.91061764  0.94942137     0.19300
C1577       C  0.90861994  0.49672733  0.11168125    -0.06500
C1578       C  0.89949970  0.54034872  0.11992468    -0.17700
C1579       C  0.86452484  0.54520365  0.13360891     0.10700
C1580       C  0.83896880  0.50494451  0.13991007    -0.06400
C1581       C  0.85200321  0.94379581  0.13332550    -0.17700
C1582       C  0.88669470  0.93928541  0.11948938     0.10700
S1583       S  0.85623231  0.60336987  0.14285410    -0.32600
S1584       S  0.90081453  0.88089283  0.11184620    -0.32700
H1585       H  0.94932557  0.88884051  0.11096392     0.28700
H1586       H  0.80842066  0.60321333  0.13812988     0.28700
H1587       H  0.92094397  0.57067353  0.11605832     0.19300
H1588       H  0.83489022  0.91219788  0.13870546     0.19300
C1589       C  0.64960799  0.50357545  0.14223070    -0.06500
C1590       C  0.62300327  0.54395257  0.13940960    -0.17700
C1591       C  0.58921806  0.54603970  0.12503552     0.10700
C1592       C  0.58112079  0.50671771  0.11313611    -0.06400
C1593       C  0.60596405  0.93890492  0.11867771    -0.17700
C1594       C  0.64151199  0.94015238  0.13238386     0.10700
S1595       S  0.55562101  0.59888114  0.12346346    -0.32600
S1596       S  0.67250355  0.88645287  0.13620396    -0.32700
H1597       H  0.71685348  0.90855170  0.13540983     0.28700
H1598       H  0.54351166  0.59400651  0.10416519     0.28700
H1599       H  0.62779494  0.57395553  0.14874094     0.19300
H1600       H  0.59641862  0.90569593  0.11207210     0.19300
C1601       C  0.84061250  0.97085097  0.04191758    -0.06500
C1602       C  0.86897264  0.93137855  0.04347158    -0.17700
C1603       C  0.90424326  0.92902924  0.05724085     0.10700
C1604       C  0.91195533  0.96735234  0.06975091    -0.06400
C1605       C  0.88128278  0.52128096  0.06794564    -0.17700
C1606       C  0.84496218  0.52192544  0.05459113     0.10700
S1607       S  0.93909155  0.87679772  0.05744600    -0.32600
S1608       S  0.80523245  0.57016327  0.05581301    -0.32700
H1609       H  0.76511726  0.54230764  0.05212908     0.28700
H1610       H  0.95736291  0.88182422  0.07593610     0.28700
H1611       H  0.86463103  0.90257772  0.03349430     0.19300
H1612       H  0.88601544  0.55073360  0.07757211     0.19300
C1613       C  0.58278375  0.97880529  0.07041831    -0.06500
C1614       C  0.61255392  0.94062519  0.06889113    -0.17700
C1615       C  0.64786728  0.94014946  0.05519754     0.10700
C1616       C  0.65251498  0.97801565  0.04214826    -0.06400
C1617       C  0.62742649  0.53588083  0.04435317    -0.17700
C1618       C  0.59248837  0.53980855  0.05808910     0.10700
S1619       S  0.68576370  0.89034807  0.05532876    -0.32600
S1620       S  0.56333587  0.59553293  0.05924819    -0.32700
H1621       H  0.52705630  0.58355758  0.07178914     0.28700
H1622       H  0.72670171  0.91735750  0.05217715     0.28700
H1623       H  0.60714017  0.91011988  0.07793809     0.19300
H1624       H  0.63528861  0.56596809  0.03533331     0.19300
loop_ 
_geom_bond_atom_site_label_1 
_geom_bond_atom_site_label_2 
_geom_bond_distance 
_geom_bond_site_symmetry_2 
_ccdc_geom_bond_type 
C1            C6   1.399   1_455  A
C1          C408   1.413       .  A
C1          C374   1.480       .  S
C2          C407   1.413       .  A
C2          C815   1.400   1_455  A
C2          C395   1.481       .  S
C3            C4   1.396       .  A
C3          C814   1.398       .  A
C3          H820   1.085       .  S
C4          C411   1.413       .  A
C4          C386   1.475       .  S
C5          C410   1.415       .  A
C5          C818   1.400       .  A
C5          C359   1.477       .  S
C6          C817   1.398       .  A
C6          H819   1.086       .  S
H7          C818   1.086       .  S
H8          C815   1.085       .  S
O9           V17   1.903       .  S
O9           C19   1.267       .  A
O10          V17   1.902   1_554  S
O10          C20   1.266       .  A
O11          V17   1.892   1_554  S
O11          C21   1.262       .  A
O12          V17   1.890       .  S
O12          C22   1.263       .  A
O13          V18   1.895       .  S
O13         C428   1.264   1_545  A
O14          V18   1.900   1_554  S
O14         C427   1.266   1_545  A
O15          V18   1.891   1_554  S
O15         C426   1.262   1_545  A
O16          V18   1.892       .  S
O16         C425   1.262   1_545  A
V17         V424   2.083       .  T
V18         V423   2.084   1_545  T
C19         C350   1.485       .  S
C19         O422   1.261       .  A
C20         C383   1.484       .  S
C20         O421   1.261       .  A
C21         C398   1.487       .  S
C21         O420   1.267       .  A
C22         C335   1.478       .  S
C22         O419   1.265       .  A
O23          V31   1.909       .  S
O23          C33   1.268   1_545  A
O24          V31   1.900       .  S
O24          C34   1.265   1_545  A
O25          V31   1.890       .  S
O25          C35   1.262   1_545  A
O26          V31   1.902       .  S
O26          C36   1.263   1_545  A
O27          V32   1.913       .  S
O27         C442   1.267       .  A
O28          V32   1.902       .  S
O28         C441   1.264       .  A
O29          V32   1.892       .  S
O29         C440   1.263       .  A
O30          V32   1.909       .  S
O30         C439   1.267       .  A
V31         V438   2.085   1_545  T
V32         V437   2.086       .  T
C33         C323   1.494   1_565  S
C33         O436   1.265       .  A
C34         C362   1.483       .  S
C34         O435   1.263       .  A
C35         C371   1.478       .  S
C35         O434   1.266       .  A
C36         C311   1.483   1_565  S
C36         O433   1.268       .  A
C37          C38   1.408       .  A
C37         C854   1.396   1_455  A
C37         C347   1.475       .  S
C38         C851   1.395   1_455  A
C38         C299   1.468       .  S
C39          C40   1.395       .  A
C39         C850   1.397       .  A
C39          H44   1.085       .  S
C40          C41   1.408       .  A
C40         C287   1.470       .  S
C41          C42   1.400       .  A
C41         C338   1.476       .  S
C42         C849   1.398       .  A
C42          H43   1.085       .  S
O45          V53   1.901       .  S
O45          C55   1.265       .  A
O46          V53   1.909       .  S
O46          C56   1.268       .  A
O47          V53   1.898       .  S
O47          C57   1.262       .  A
O48          V53   1.885       .  S
O48          C58   1.262       .  A
O49          V54   1.899       .  S
O49         C464   1.264   1_545  A
O50          V54   1.910       .  S
O50         C463   1.267       .  A
O51          V54   1.906       .  S
O51         C462   1.265       .  A
O52          V54   1.885       .  S
O52         C461   1.262   1_545  A
V53         V460   2.085       .  T
V54         V459   2.085   1_545  T
C55         C290   1.477       .  S
C55         O458   1.262       .  A
C56         C275   1.493       .  S
C56         O457   1.265       .  A
C57         C263   1.477       .  S
C57         O456   1.267       .  A
C58         C302   1.481       .  S
C58         O455   1.264       .  A
O59          V67   1.926       .  S
O59         C881   1.271   1_455  A
O60          V67   1.903       .  S
O60         C882   1.265       .  A
O61          V67   1.888       .  S
O61         C883   1.263       .  A
O62          V67   1.915       .  S
O62         C884   1.267       .  A
O63          V68   1.914       .  S
O63          C72   1.271       .  A
O64          V68   1.895       .  S
O64          C71   1.264       .  A
O65          V68   1.885       .  S
O65          C70   1.263       .  A
O66          V68   1.911       .  S
O66          C69   1.265       .  A
V67         V880   2.083   1_455  T
V68         V879   2.084       .  T
C69         C239   1.498       .  S
C69         O871   1.270       .  A
C70         C227   1.479       .  S
C70         O872   1.264       .  A
C71         C215   1.478       .  S
C71         O873   1.264       .  A
C72         C251   1.509       .  S
C72         O874   1.268       .  A
C73          C74   1.406       .  A
C73         C484   1.396       .  A
C73         C230   1.469       .  S
C74         C481   1.400       .  A
C74         C203   1.472       .  S
C75          C76   1.399       .  A
C75         C480   1.397       .  A
C75          H80   1.085       .  S
C76          C77   1.410       .  A
C76         C191   1.473       .  S
C77          C78   1.399       .  A
C77         C218   1.475       .  S
C78         C479   1.397       .  A
C78          H79   1.085       .  S
O81          V89   1.897       .  S
O81          C91   1.264       .  A
O82          V89   1.895       .  S
O82          C92   1.263       .  A
O83          V89   1.898       .  S
O83          C93   1.265       .  A
O84          V89   1.897       .  S
O84          C94   1.264       .  A
O85          V90   1.888       .  S
O85         C906   1.262       .  A
O86          V90   1.887       .  S
O86         C905   1.261       .  A
O87          V90   1.893       .  S
O87         C904   1.264       .  A
O88          V90   1.893       .  S
O88         C903   1.263       .  A
V89         V902   2.086       .  T
V90         V901   2.087   1_455  T
C91         C167   1.475       .  S
C91         O900   1.263       .  A
C92         C206   1.477       .  S
C92         O899   1.264       .  A
C93         C194   1.481       .  S
C93         O898   1.264       .  A
C94         C179   1.484       .  S
C94         O897   1.264       .  A
C95         C242   1.598       .  S
C95         C266   1.574       .  S
C95         C660   1.605       .  S
C95        C1090   1.598       .  S
C96          C97   1.407       .  A
C96         C507   1.397       .  A
C96         C182   1.476       .  S
C97         C504   1.397       .  A
C97         C155   1.467       .  S
C98          C99   1.400       .  A
C98         C503   1.399       .  A
C98         H103   1.085       .  S
C99         C100   1.414       .  A
C99         C143   1.479       .  S
C100        C101   1.401       .  A
C100        C170   1.482       .  S
C101        C502   1.400       .  A
C101        H102   1.085       .  S
O104        V112   1.894       .  S
O104        C114   1.265       .  A
O105        V112   1.909       .  S
O105        C115   1.268       .  A
O106        V112   1.910       .  S
O106        C116   1.265       .  A
O107        V112   1.889       .  S
O107        C117   1.263       .  A
O108        V113   1.901       .  S
O108        C929   1.264       .  A
O109        V113   1.921       .  S
O109        C928   1.270       .  A
O110        V113   1.915       .  S
O110        C927   1.268       .  A
O111        V113   1.894       .  S
O111        C926   1.262       .  A
V112        V925   2.083       .  T
V113        V924   2.081   1_455  T
C114        C158   1.483       .  S
C114        O923   1.262       .  A
C115        C119   1.501       .  S
C115        O922   1.267       .  A
C116        C131   1.496       .  S
C116        O921   1.270       .  A
C117        C146   1.484       .  S
C117        O920   1.265       .  A
C118        C134   1.594       .  S
C118        C314   1.587       .  S
C118        C528   1.605   1_545  S
C118       C1138   1.590       .  S
C119        C120   1.407       .  A
C119        C936   1.404       .  A
C120        C121   1.418       .  A
C120        H129   1.081       .  S
C121        C122   1.436       .  A
C121        S125   1.810       .  S
C122        C935   1.432       .  A
C122        C524   1.605       .  S
C123        C124   1.406       .  A
C123        C934   1.430       .  A
C123        H130   1.075       .  S
C124        C931   1.407   1_655  A
C124        S126   1.803       .  S
S125        H128   1.406       .  S
S126        H127   1.407       .  S
C131        C136   1.415       .  A
C131        C944   1.392       .  A
C132        C133   1.413       .  A
C132        C943   1.393       .  A
C132        H141   1.082       .  S
C133        C946   1.444       .  A
C133        S137   1.806       .  S
C134        C135   1.414       .  A
C134        C945   1.443       .  A
C135        C136   1.409       .  A
C135        H142   1.079       .  S
C136        S138   1.798       .  S
S137        H140   1.406       .  S
S138        H139   1.404       .  S
C143        C148   1.408       .  A
C143        C956   1.404       .  A
C144        C145   1.398       .  A
C144        C955   1.400       .  A
C144        H153   1.084       .  S
C145        C958   1.419       .  A
C145        S149   1.800       .  S
C146        C147   1.408       .  A
C146        C957   1.416       .  A
C147        C148   1.396       .  A
C147        H154   1.084       .  S
C148        S150   1.799       .  S
S149        H152   1.408       .  S
S150        H151   1.406       .  S
C155        C156   1.397       .  A
C155        C972   1.405       .  A
C156        C157   1.401       .  A
C156        H165   1.083       .  S
C157        C158   1.421       .  A
C157        S161   1.809       .  S
C158        C971   1.407       .  A
C159        C160   1.398       .  A
C159        C970   1.407   1_655  A
C159        H166   1.082       .  S
C160        C967   1.407   1_655  A
C160        S162   1.808       .  S
S161        H164   1.407       .  S
S162        H975   1.407       .  S
H163        S974   1.406       .  S
C167        C168   1.399       .  A
C167        C984   1.415       .  A
C168        C169   1.395       .  A
C168        H177   1.084       .  S
C169        C170   1.419       .  A
C169        S173   1.809       .  S
C170        C983   1.402       .  A
C171        C172   1.397       .  A
C171        C982   1.400       .  A
C171        H178   1.083       .  S
C172        C979   1.415       .  A
C172        S174   1.802       .  S
S173        H176   1.402       .  S
S174        H175   1.407       .  S
C179        C184   1.418       .  A
C179        C992   1.406       .  A
C180        C181   1.394       .  A
C180        C991   1.402       .  A
C180        H189   1.084       .  S
C181        C994   1.414       .  A
C181        S185   1.805       .  S
C182        C183   1.399       .  A
C182        C993   1.411       .  A
C183        C184   1.398       .  A
C183        H190   1.082       .  S
C184        S186   1.802       .  S
S185        H188   1.407       .  S
S186        H187   1.408       .  S
C191        C196   1.412       .  A
C191       C1004   1.398       .  A
C192        C193   1.396       .  A
C192       C1003   1.398   1_455  A
C192        H201   1.084       .  S
C193       C1006   1.419   1_455  A
C193        S197   1.803       .  S
C194        C195   1.405       .  A
C194       C1005   1.418       .  A
C195        C196   1.397       .  A
C195        H202   1.084       .  S
C196        S198   1.805       .  S
S197        H200   1.408       .  S
S198        H199   1.406       .  S
C203        C204   1.399       .  A
C203       C1020   1.408       .  A
C204        C205   1.398       .  A
C204        H213   1.083       .  S
C205        C206   1.418       .  A
C205        S209   1.803       .  S
C206       C1019   1.403       .  A
C207        C208   1.397       .  A
C207       C1018   1.403       .  A
C207        H214   1.083       .  S
C208       C1015   1.408       .  A
C208        S210   1.808       .  S
S209        H212   1.408       .  S
S210        H617   1.407       .  S
H211        S616   1.407       .  S
C215        C220   1.417       .  A
C215       C1028   1.403       .  A
C216        C217   1.390       .  A
C216       C1027   1.402       .  A
C216        H225   1.084       .  S
C217       C1030   1.411       .  A
C217        S221   1.806       .  S
C218        C219   1.400       .  A
C218       C1029   1.412       .  A
C219        C220   1.398       .  A
C219        H226   1.084       .  S
C220        S222   1.802       .  S
S221        H224   1.407       .  S
S222        H223   1.408       .  S
C227        C228   1.405       .  A
C227       C1044   1.418       .  A
C228        C229   1.390       .  A
C228        H237   1.083       .  S
C229        C230   1.408       .  A
C229        S233   1.806       .  S
C230       C1043   1.400       .  A
C231        C232   1.406       .  A
C231       C1042   1.401       .  A
C231        H238   1.083       .  S
C232       C1039   1.420       .  A
C232        S234   1.808       .  S
S233        H236   1.406       .  S
S234        H235   1.407       .  S
C239        C244   1.418       .  A
C239       C1052   1.389       .  A
C240        C241   1.410       .  A
C240       C1051   1.390       .  A
C240        H249   1.082       .  S
C241       C1054   1.447       .  A
C241        S245   1.807       .  S
C242        C243   1.414       .  A
C242       C1053   1.446       .  A
C243        C244   1.413       .  A
C243        H250   1.079       .  S
C244        S246   1.798       .  S
S245        H248   1.406   1_655  S
S246        H247   1.404       .  S
C251        C252   1.389       .  A
C251       C1068   1.417       .  A
C252        C253   1.408       .  A
C252        H261   1.084       .  S
C253        C254   1.460       .  A
C253        S257   1.812       .  S
C254       C1067   1.420       .  A
C254        C501   1.609       .  S
C255        C256   1.413       .  A
C255       C1066   1.420   1_455  A
C255        H262   1.083       .  S
C256       C1063   1.416       .  A
C256        S258   1.799       .  S
S257        H260   1.408       .  S
S258        H259   1.405       .  S
C263        C268   1.399       .  A
C263        C670   1.403       .  A
C264        C265   1.414       .  A
C264        C669   1.403       .  A
C264        H273   1.082       .  S
C265        C672   1.436       .  A
C265        S269   1.809       .  S
C266        C267   1.430       .  A
C266        C671   1.436       .  A
C267        C268   1.398       .  A
C267        H274   1.082       .  S
C268        S270   1.804       .  S
S269        H272   1.407   1_545  S
S270        H271   1.406       .  S
C275        C280   1.401       .  A
C275        C682   1.405       .  A
C276        C277   1.417       .  A
C276        C681   1.405       .  A
C276        H285   1.082       .  S
C277        C684   1.436       .  A
C277        S281   1.806       .  S
C278        C279   1.432       .  A
C278        C683   1.436       .  A
C278        C907   1.599   1_455  S
C279        C280   1.397       .  A
C279        H286   1.077       .  S
C280        S282   1.805       .  S
S281        H284   1.406       .  S
S282        H283   1.407       .  S
C287        C288   1.400       .  A
C287        C698   1.409       .  A
C288        C289   1.399       .  A
C288        H297   1.083       .  S
C289        C290   1.417       .  A
C289        S293   1.801       .  S
C290        C697   1.405       .  A
C291        C292   1.393       .  A
C291        C696   1.408   1_545  A
C291        H298   1.084       .  S
C292        C693   1.409   1_545  A
C292        S294   1.809       .  S
S293        H296   1.408       .  S
S294        H295   1.403       .  S
C299        C304   1.409       .  A
C299        C706   1.400       .  A
C300        C301   1.398       .  A
C300        C705   1.401   1_545  A
C300        H309   1.083       .  S
C301        C708   1.415   1_545  A
C301        S305   1.802       .  S
C302        C303   1.406       .  A
C302        C707   1.417       .  A
C303        C304   1.392       .  A
C303        H310   1.084       .  S
C304        S306   1.807       .  S
S305        H308   1.408       .  S
S306        H307   1.401       .  S
C311        C312   1.402       .  A
C311        C722   1.401       .  A
C312        C313   1.413       .  A
C312        H321   1.083   1_545  S
C313        C314   1.438       .  A
C313        S317   1.813       .  S
C314        C721   1.428       .  A
C315        C316   1.402       .  A
C315        C720   1.429       .  A
C315        H322   1.083       .  S
C316        C717   1.401       .  A
C316        S318   1.805       .  S
S317        H320   1.406       .  S
S318        H319   1.405       .  S
C323        C324   1.403   1_545  A
C323        C734   1.404       .  A
C324        C325   1.411       .  A
C324        H333   1.083       .  S
C325        C326   1.437   1_565  A
C325        S329   1.811       .  S
C326        C733   1.428       .  A
C326        C930   1.590   1_455  S
C327        C328   1.400       .  A
C327        C732   1.426       .  A
C327        H334   1.076       .  S
C328        C729   1.405       .  A
C328        S330   1.805       .  S
S329        H332   1.407       .  S
S330        H331   1.408       .  S
C335        C336   1.403       .  A
C335        C746   1.416       .  A
C336        C337   1.393       .  A
C336        H345   1.084       .  S
C337        C338   1.412       .  A
C337        S341   1.806       .  S
C338        C745   1.402       .  A
C339        C340   1.397       .  A
C339        C744   1.400   1_545  A
C339        H346   1.082       .  S
C340        C741   1.417   1_545  A
C340        S342   1.803       .  S
S341        H344   1.407       .  S
S342        H343   1.408       .  S
C347        C352   1.408       .  A
C347        C754   1.397       .  A
C348        C349   1.397       .  A
C348        C753   1.400   1_545  A
C348        H357   1.084       .  S
C349        C756   1.419   1_545  A
C349        S353   1.802       .  S
C350        C351   1.406       .  A
C350        C755   1.421       .  A
C351        C352   1.400       .  A
C351        H358   1.082       .  S
C352        S354   1.805       .  S
S353        H356   1.408       .  S
S354        H355   1.407       .  S
C359        C360   1.403   1_565  A
C359        C770   1.408       .  A
C360        C361   1.395       .  A
C360        H369   1.085       .  S
C361        C362   1.413   1_545  A
C361        S365   1.799       .  S
C362        C769   1.410       .  A
C363        C364   1.394       .  A
C363        C768   1.401       .  A
C363        H370   1.084       .  S
C364        C765   1.417       .  A
C364        S366   1.811       .  S
S365        H368   1.407       .  S
S366        H367   1.401       .  S
C371        C372   1.403   1_565  A
C371        C782   1.414       .  A
C372        C373   1.396       .  A
C372        H381   1.084       .  S
C373        C374   1.417   1_545  A
C373        S377   1.808       .  S
C374        C781   1.402       .  A
C375        C376   1.401       .  A
C375        C780   1.403       .  A
C375        H382   1.084       .  S
C376        C777   1.416       .  A
C376        S378   1.802       .  S
S377        H380   1.403       .  S
S378        H379   1.407       .  S
C383        C384   1.406       .  A
C383        C794   1.421       .  A
C384        C385   1.397       .  A
C384        H393   1.084       .  S
C385        C386   1.409       .  A
C385        S389   1.799       .  S
C386        C793   1.399       .  A
C387        C388   1.397       .  A
C387        C792   1.399       .  A
C387        H394   1.084   1_565  S
C388        C789   1.418       .  A
C388        S390   1.802   1_565  S
S389        H392   1.401       .  S
S390        H391   1.407       .  S
C395        C396   1.402       .  A
C395        C806   1.410       .  A
C396        C397   1.397       .  A
C396        H405   1.084       .  S
C397        C398   1.418       .  A
C397        S401   1.802       .  S
C398        C805   1.408       .  A
C399        C400   1.398       .  A
C399        C804   1.410   1_545  A
C399        H406   1.083       .  S
C400        C801   1.407   1_545  A
C400        S402   1.802       .  S
S401        H404   1.408       .  S
S402        H403   1.405       .  S
C407        C412   1.402   1_455  A
C407        C780   1.477       .  S
C408       C1221   1.400   1_455  A
C408        C801   1.475       .  S
C409       C1220   1.399       .  A
C409        C410   1.400       .  A
C409       H1226   1.085       .  S
C410        C792   1.481       .  S
C411       C1224   1.398       .  A
C411        C765   1.473       .  S
C412       C1223   1.397       .  A
C412       H1225   1.085       .  S
H413       C1224   1.085       .  S
H414       C1221   1.086       .  S
O415        V423   1.903       .  S
O415        C425   1.267       .  A
O416        V423   1.905   1_554  S
O416        C426   1.266       .  A
O417        V423   1.896   1_554  S
O417        C427   1.263       .  A
O418        V423   1.899       .  S
O418        C428   1.264       .  A
O419        V424   1.902       .  S
O420        V424   1.905   1_554  S
O421        V424   1.889   1_554  S
O422        V424   1.888       .  S
C425        C756   1.486       .  S
C426        C789   1.481       .  S
C427        C804   1.491       .  S
C428        C741   1.481       .  S
O429        V437   1.903       .  S
O429        C439   1.266       .  A
O430        V437   1.895       .  S
O430        C440   1.263       .  A
O431        V437   1.888       .  S
O431        C441   1.263       .  A
O432        V437   1.903       .  S
O432        C442   1.264       .  A
O433        V438   1.915       .  S
O434        V438   1.904       .  S
O435        V438   1.892       .  S
O436        V438   1.904       .  S
C439        C729   1.495       .  S
C440        C768   1.473       .  S
C441        C777   1.477       .  S
C442        C717   1.483       .  S
C443        C444   1.410       .  A
C443       C1260   1.398   1_455  A
C443        C753   1.477       .  S
C444       C1257   1.399   1_455  A
C444        C705   1.472       .  S
C445       C1256   1.398       .  A
C445        C446   1.396       .  A
C445        H450   1.085       .  S
C446        C447   1.407       .  A
C446        C693   1.467       .  S
C447        C448   1.400       .  A
C447        C744   1.478       .  S
C448       C1255   1.402       .  A
C448        H449   1.085       .  S
O451        V459   1.901       .  S
O451        C461   1.265       .  A
O452        V459   1.907       .  S
O452        C462   1.268   1_565  A
O453        V459   1.897       .  S
O453        C463   1.262   1_565  A
O454        V459   1.885       .  S
O454        C464   1.262       .  A
O455        V460   1.899       .  S
O456        V460   1.909       .  S
O457        V460   1.905       .  S
O458        V460   1.886       .  S
C461        C696   1.482       .  S
C462        C681   1.493       .  S
C463        C669   1.478       .  S
C464        C708   1.472       .  S
O465        V473   1.926       .  S
O465       C1287   1.271   1_455  A
O466        V473   1.900       .  S
O466       C1288   1.264       .  A
O467        V473   1.890       .  S
O467       C1289   1.263       .  A
O468        V473   1.917       .  S
O468       C1290   1.267       .  A
O469        V474   1.914       .  S
O469        C478   1.271       .  A
O470        V474   1.897       .  S
O470        C477   1.264       .  A
O471        V474   1.882       .  S
O471        C476   1.262       .  A
O472        V474   1.908       .  S
O472        C475   1.264       .  A
V473       V1286   2.083   1_455  T
V474       V1285   2.084       .  T
C475        C645   1.500       .  S
C475       O1277   1.272       .  A
C476        C633   1.479       .  S
C476       O1278   1.265       .  A
C477        C621   1.478       .  S
C477       O1279   1.262       .  A
C478        C657   1.506       .  S
C478       O1280   1.267       .  A
C479        C480   1.404       .  A
C479        C636   1.471       .  S
C480        C609   1.468       .  S
C481        C482   1.398   1_545  A
C481        H486   1.085       .  S
C482        C483   1.408       .  A
C482        C597   1.473       .  S
C483        C484   1.397   1_565  A
C483        C624   1.471       .  S
C484        H485   1.085       .  S
O487        V495   1.889       .  S
O487        C497   1.263       .  A
O488        V495   1.890       .  S
O488        C498   1.262       .  A
O489        V495   1.906       .  S
O489        C499   1.267       .  A
O490        V495   1.905       .  S
O490        C500   1.266       .  A
O491        V496   1.889       .  S
O491       C1312   1.263       .  A
O492        V496   1.891       .  S
O492       C1311   1.262       .  A
O493        V496   1.897       .  S
O493       C1310   1.265       .  A
O494        V496   1.899       .  S
O494       C1309   1.264       .  A
V495       V1308   2.084       .  T
V496       V1307   2.085   1_455  T
C497        C573   1.474       .  S
C497       O1306   1.264       .  A
C498        C612   1.480       .  S
C498       O1305   1.266       .  A
C499        C600   1.485       .  S
C499       O1304   1.261       .  A
C500        C585   1.478       .  S
C500       O1303   1.262       .  A
C501        C648   1.599   1_545  S
C501        C672   1.575       .  S
C501       C1496   1.599       .  S
C502        C503   1.409       .  A
C502        C588   1.481       .  S
C503        C561   1.473       .  S
C504        C505   1.397   1_545  A
C504        H509   1.085       .  S
C505        C506   1.411       .  A
C505        C549   1.474       .  S
C506        C507   1.402   1_565  A
C506        C576   1.475       .  S
C507        H508   1.085       .  S
O510        V518   1.895       .  S
O510        C520   1.265       .  A
O511        V518   1.911       .  S
O511        C521   1.268       .  A
O512        V518   1.913       .  S
O512        C522   1.266       .  A
O513        V518   1.892       .  S
O513        C523   1.264       .  A
O514        V519   1.904       .  S
O514       C1335   1.265       .  A
O515        V519   1.924       .  S
O515       C1334   1.270       .  A
O516        V519   1.915       .  S
O516       C1333   1.268       .  A
O517        V519   1.897       .  S
O517       C1332   1.263       .  A
V518       V1331   2.083       .  T
V519       V1330   2.083   1_455  T
C520        C564   1.482       .  S
C520       O1329   1.263       .  A
C521        C525   1.502       .  S
C521       O1328   1.268       .  A
C522        C537   1.497       .  S
C522       O1327   1.269       .  A
C523        C552   1.488       .  S
C523       O1326   1.264       .  A
C524        C540   1.594       .  S
C524        C720   1.588       .  S
C524       C1544   1.592       .  S
C525        C526   1.406       .  A
C525       C1342   1.405       .  A
C526        C527   1.418       .  A
C526        H535   1.082       .  S
C527        C528   1.436       .  A
C527        S531   1.810       .  S
C528       C1341   1.431       .  A
C529       C1340   1.432       .  A
C529        C530   1.404       .  A
C529        H536   1.074       .  S
C530       C1337   1.405   1_655  A
C530        S532   1.805       .  S
S531        H534   1.406       .  S
S532        H533   1.407       .  S
C537       C1350   1.392       .  A
C537        C542   1.415       .  A
C538       C1349   1.394       .  A
C538        C539   1.413       .  A
C538        H547   1.082   1_655  S
C539       C1352   1.443       .  A
C539        S543   1.806   1_655  S
C540       C1351   1.444       .  A
C540        C541   1.414       .  A
C541        C542   1.409       .  A
C541        H548   1.079       .  S
C542        S544   1.796       .  S
S543        H546   1.406   1_455  S
S544        H545   1.404       .  S
C549       C1362   1.402       .  A
C549        C554   1.407       .  A
C550       C1361   1.403       .  A
C550        C551   1.400       .  A
C550        H559   1.084       .  S
C551       C1364   1.418       .  A
C551        S555   1.801       .  S
C552       C1363   1.419       .  A
C552        C553   1.408       .  A
C553        C554   1.395       .  A
C553        H560   1.084       .  S
C554        S556   1.801       .  S
S555        H558   1.408       .  S
S556        H557   1.404       .  S
C561        C562   1.399       .  A
C561       C1378   1.407       .  A
C562        C563   1.405       .  A
C562        H571   1.082       .  S
C563        C564   1.418       .  A
C563        S567   1.808       .  S
C564       C1377   1.404       .  A
C565       C1376   1.404   1_655  A
C565        C566   1.395       .  A
C565        H572   1.082       .  S
C566       C1373   1.406   1_655  A
C566        S568   1.808       .  S
S567        H570   1.407       .  S
S568       H1381   1.406       .  S
H569       S1380   1.406       .  S
C573        C574   1.401       .  A
C573       C1390   1.415       .  A
C574        C575   1.393       .  A
C574        H583   1.084       .  S
C575        C576   1.416       .  A
C575        S579   1.808       .  S
C576       C1389   1.401       .  A
C577       C1388   1.403       .  A
C577        C578   1.401       .  A
C577        H584   1.084       .  S
C578       C1385   1.416       .  A
C578        S580   1.803       .  S
S579        H582   1.402       .  S
S580        H581   1.407       .  S
C585       C1398   1.402       .  A
C585        C590   1.415       .  A
C586       C1397   1.403       .  A
C586        C587   1.394       .  A
C586        H595   1.084       .  S
C587       C1400   1.413       .  A
C587        S591   1.805       .  S
C588       C1399   1.414       .  A
C588        C589   1.403       .  A
C589        C590   1.401       .  A
C589        H596   1.082       .  S
C590        S592   1.802       .  S
S591        H594   1.407       .  S
S592        H593   1.407       .  S
C597       C1410   1.397       .  A
C597        C602   1.411       .  A
C598       C1409   1.399   1_455  A
C598        C599   1.397       .  A
C598        H607   1.084       .  S
C599       C1412   1.419   1_455  A
C599        S603   1.802       .  S
C600       C1411   1.421       .  A
C600        C601   1.405       .  A
C601        C602   1.399       .  A
C601        H608   1.083       .  S
C602        S604   1.806       .  S
S603        H606   1.408       .  S
S604        H605   1.405       .  S
C609        C610   1.397       .  A
C609       C1426   1.406       .  A
C610        C611   1.397       .  A
C610        H619   1.084       .  S
C611        C612   1.420       .  A
C611        S615   1.802       .  S
C612       C1425   1.405       .  A
C613       C1424   1.407       .  A
C613        C614   1.399       .  A
C613        H620   1.082       .  S
C614       C1421   1.406       .  A
C614        S616   1.808       .  S
S615        H618   1.408       .  S
C621       C1434   1.405       .  A
C621        C626   1.417       .  A
C622       C1433   1.404       .  A
C622        C623   1.393       .  A
C622        H631   1.084       .  S
C623       C1436   1.411       .  A
C623        S627   1.806       .  S
C624       C1435   1.410       .  A
C624        C625   1.400       .  A
C625        C626   1.398       .  A
C625        H632   1.083       .  S
C626        S628   1.801       .  S
S627        H630   1.407       .  S
S628        H629   1.408       .  S
C633        C634   1.405       .  A
C633       C1450   1.417       .  A
C634        C635   1.390       .  A
C634        H643   1.083       .  S
C635        C636   1.408       .  A
C635        S639   1.806       .  S
C636       C1449   1.401       .  A
C637       C1448   1.399   1_455  A
C637        C638   1.402       .  A
C637        H644   1.083       .  S
C638       C1445   1.419       .  A
C638        S640   1.809       .  S
S639        H642   1.406       .  S
S640        H641   1.407       .  S
C645       C1458   1.390       .  A
C645        C650   1.418       .  A
C646       C1457   1.389       .  A
C646        C647   1.409       .  A
C646        H655   1.083       .  S
C647       C1460   1.446       .  A
C647        S651   1.806       .  S
C648       C1459   1.447       .  A
C648        C649   1.413       .  A
C649        C650   1.413       .  A
C649        H656   1.079       .  S
C650        S652   1.796       .  S
S651        H654   1.406   1_655  S
S652        H653   1.405       .  S
C657        C658   1.389       .  A
C657       C1474   1.417       .  A
C658        C659   1.407       .  A
C658        H667   1.084       .  S
C659        C660   1.459       .  A
C659        S663   1.816       .  S
C660       C1473   1.420       .  A
C661       C1472   1.420   1_455  A
C661        C662   1.415       .  A
C661        H668   1.083       .  S
C662       C1469   1.418   1_455  A
C662        S664   1.799       .  S
S663        H666   1.408       .  S
S664        H665   1.405       .  S
C669        C674   1.399   1_545  A
C670        C671   1.414       .  A
C670        H679   1.083       .  S
C671        S675   1.809       .  S
C672        C673   1.430   1_545  A
C673        C674   1.399       .  A
C673        H680   1.082       .  S
C674        S676   1.803       .  S
S675        H678   1.407       .  S
S676        H677   1.406   1_565  S
C681        C686   1.400   1_545  A
C682        C683   1.416       .  A
C682        H691   1.084       .  S
C683        S687   1.805       .  S
C684        C685   1.432   1_545  A
C684       C1313   1.600   1_455  S
C685        C686   1.396       .  A
C685        H692   1.076       .  S
C686        S688   1.805       .  S
S687        H690   1.407       .  S
S688        H689   1.406       .  S
C693        C694   1.399       .  A
C694        C695   1.398       .  A
C694        H703   1.084       .  S
C695        C696   1.418       .  A
C695        S699   1.800       .  S
C697        C698   1.391       .  A
C697        H704   1.083       .  S
C698        S700   1.806       .  S
S699        H702   1.408       .  S
S700        H701   1.406       .  S
C705        C710   1.415       .  A
C706        C707   1.397       .  A
C706        H715   1.083       .  S
C707        S711   1.801       .  S
C708        C709   1.402       .  A
C709        C710   1.392       .  A
C709        H716   1.084       .  S
C710        S712   1.809       .  S
S711        H714   1.408       .  S
S712        H713   1.404       .  S
C717        C718   1.402       .  A
C718        C719   1.414       .  A
C718        H727   1.083       .  S
C719        C720   1.438       .  A
C719        S723   1.812       .  S
C721        C722   1.402       .  A
C721        H728   1.082       .  S
C722        S724   1.804       .  S
S723        H726   1.406       .  S
S724        H725   1.405   1_545  S
C729        C730   1.403       .  A
C730        C731   1.414       .  A
C730        H739   1.083       .  S
C731        C732   1.438       .  A
C731        S735   1.810       .  S
C732       C1336   1.592   1_455  S
C733        C734   1.401       .  A
C733        H740   1.075       .  S
C734        S736   1.804       .  S
S735        H738   1.407       .  S
S736        H737   1.408       .  S
C741        C742   1.405       .  A
C742        C743   1.399       .  A
C742        H751   1.084       .  S
C743        C744   1.411       .  A
C743        S747   1.805       .  S
C745        C746   1.398       .  A
C745        H752   1.083       .  S
C746        S748   1.800       .  S
S747        H750   1.406       .  S
S748        H749   1.407       .  S
C753        C758   1.406       .  A
C754        C755   1.399       .  A
C754        H763   1.082       .  S
C755        S759   1.809       .  S
C756        C757   1.408       .  A
C757        C758   1.403       .  A
C757        H764   1.082       .  S
C758        S760   1.804       .  S
S759        H762   1.407       .  S
S760        H761   1.406       .  S
C765        C766   1.401       .  A
C766        C767   1.396       .  A
C766        H775   1.081       .  S
C767        C768   1.414       .  A
C767        S771   1.803       .  S
C769        C770   1.401       .  A
C769        H776   1.084       .  S
C770        S772   1.802       .  S
S771        H774   1.408       .  S
S772        H773   1.405       .  S
C777        C778   1.402       .  A
C778        C779   1.392       .  A
C778        H787   1.084       .  S
C779        C780   1.415       .  A
C779        S783   1.809       .  S
C781        C782   1.399       .  A
C781        H788   1.083       .  S
C782        S784   1.802       .  S
S783        H786   1.402       .  S
S784        H785   1.407       .  S
C789        C790   1.402       .  A
C790        C791   1.399       .  A
C790        H799   1.084       .  S
C791        C792   1.418       .  A
C791        S795   1.807       .  S
C793        C794   1.397       .  A
C793        H800   1.083       .  S
C794        S796   1.802       .  S
S795        H798   1.404       .  S
S796        H797   1.408       .  S
C801        C802   1.399       .  A
C802        C803   1.401       .  A
C802        H811   1.083       .  S
C803        C804   1.421       .  A
C803        S807   1.810       .  S
C805        C806   1.401       .  A
C805        H812   1.083       .  S
C806        S808   1.799       .  S
S807        H810   1.407       .  S
S808        H809   1.406       .  S
C813       C1220   1.409       .  A
C813        C818   1.395       .  A
C813       C1186   1.475       .  S
C814       C1219   1.412       .  A
C814       C1207   1.469       .  S
C815        C816   1.400       .  A
C816       C1223   1.410       .  A
C816       C1198   1.476       .  S
C817       C1222   1.409       .  A
C817       C1171   1.470       .  S
O821        V829   1.895       .  S
O821        C831   1.264       .  A
O822        V829   1.897   1_554  S
O822        C832   1.265       .  A
O823        V829   1.891   1_554  S
O823        C833   1.262       .  A
O824        V829   1.891       .  S
O824        C834   1.263       .  A
O825        V830   1.892       .  S
O825       C1240   1.262   1_545  A
O826        V830   1.895   1_554  S
O826       C1239   1.264   1_545  A
O827        V830   1.895   1_554  S
O827       C1238   1.263   1_545  A
O828        V830   1.896       .  S
O828       C1237   1.263   1_545  A
V829       V1236   2.086       .  T
V830       V1235   2.085   1_545  T
C831       C1162   1.478       .  S
C831       O1234   1.262       .  A
C832       C1195   1.475       .  S
C832       O1233   1.262       .  A
C833       C1210   1.479       .  S
C833       O1232   1.265       .  A
C834       C1147   1.475       .  S
C834       O1231   1.263       .  A
O835        V843   1.901       .  S
O835        C845   1.265   1_545  A
O836        V843   1.888       .  S
O836        C846   1.261   1_545  A
O837        V843   1.899       .  S
O837        C847   1.265   1_545  A
O838        V843   1.909       .  S
O838        C848   1.265   1_545  A
O839        V844   1.914       .  S
O839       C1254   1.267       .  A
O840        V844   1.899       .  S
O840       C1253   1.264       .  A
O841        V844   1.897       .  S
O841       C1252   1.265       .  A
O842        V844   1.910       .  S
O842       C1251   1.267       .  A
V843       V1250   2.084   1_545  T
V844       V1249   2.084       .  T
C845       C1135   1.492       .  S
C845       O1248   1.267       .  A
C846       C1174   1.484       .  S
C846       O1247   1.266       .  A
C847       C1183   1.486       .  S
C847       O1246   1.263       .  A
C848       C1123   1.487   1_565  S
C848       O1245   1.267       .  A
C849        C850   1.409       .  A
C849       C1159   1.475       .  S
C850       C1111   1.471       .  S
C851        C852   1.398       .  A
C851        H856   1.086       .  S
C852        C853   1.411       .  A
C852       C1099   1.477       .  S
C853        C854   1.401       .  A
C853       C1150   1.474       .  S
C854        H855   1.086       .  S
O857        V865   1.904       .  S
O857        C867   1.266       .  A
O858        V865   1.910       .  S
O858        C868   1.269       .  A
O859        V865   1.898       .  S
O859        C869   1.262       .  A
O860        V865   1.882       .  S
O860        C870   1.261       .  A
O861        V866   1.902       .  S
O861       C1276   1.265   1_545  A
O862        V866   1.911       .  S
O862       C1275   1.267       .  A
O863        V866   1.904       .  S
O863       C1274   1.264       .  A
O864        V866   1.883       .  S
O864       C1273   1.261   1_545  A
V865       V1272   2.087       .  T
V866       V1271   2.086   1_545  T
C867       C1102   1.474       .  S
C867       O1270   1.261       .  A
C868       C1087   1.494       .  S
C868       O1269   1.265       .  A
C869       C1075   1.478       .  S
C869       O1268   1.267       .  A
C870       C1114   1.473       .  S
C870       O1267   1.265       .  A
O871        V879   1.922       .  S
O872        V879   1.898       .  S
O873        V879   1.893       .  S
O874        V879   1.917       .  S
O875        V880   1.912       .  S
O875        C884   1.270   1_655  A
O876        V880   1.894       .  S
O876        C883   1.263   1_655  A
O877        V880   1.890       .  S
O877        C882   1.264   1_655  A
O878        V880   1.913       .  S
O878        C881   1.266       .  A
C881       C1051   1.502       .  S
C882       C1039   1.487       .  S
C883       C1027   1.474       .  S
C884       C1063   1.505       .  S
C885        C886   1.407       .  A
C885       C1296   1.396       .  A
C885       C1042   1.473       .  S
C886       C1293   1.399       .  A
C886       C1015   1.469       .  S
C887       C1292   1.395       .  A
C887        C888   1.396   1_455  A
C887        H892   1.086       .  S
C888        C889   1.408   1_655  A
C888       C1003   1.470       .  S
C889        C890   1.397   1_455  A
C889       C1030   1.470       .  S
C890       C1291   1.394       .  A
C890        H891   1.086       .  S
O893        V901   1.892       .  S
O893        C903   1.263   1_655  A
O894        V901   1.892       .  S
O894        C904   1.262   1_655  A
O895        V901   1.899       .  S
O895        C905   1.265   1_655  A
O896        V901   1.899       .  S
O896        C906   1.265   1_655  A
O897        V902   1.897       .  S
O898        V902   1.895       .  S
O899        V902   1.897       .  S
O900        V902   1.896       .  S
C903        C979   1.473       .  S
C904       C1018   1.474       .  S
C905       C1006   1.476   1_455  S
C906        C991   1.474       .  S
C907       C1054   1.600       .  S
C907       C1472   1.607       .  S
C907       C1078   1.575       .  S
C908        C909   1.409       .  A
C908       C1319   1.399       .  A
C908        C994   1.479       .  S
C909       C1316   1.397       .  A
C909        C967   1.472       .  S
C910       C1315   1.399       .  A
C910        C911   1.398       .  A
C910        H915   1.085       .  S
C911        C912   1.409       .  A
C911        C955   1.473       .  S
C912        C913   1.398       .  A
C912        C982   1.473       .  S
C913       C1314   1.397       .  A
C913        H914   1.085       .  S
O916        V924   1.899       .  S
O916        C926   1.266   1_655  A
O917        V924   1.916       .  S
O917        C927   1.270   1_655  A
O918        V924   1.914       .  S
O918        C928   1.266   1_655  A
O919        V924   1.892       .  S
O919        C929   1.264   1_655  A
O920        V925   1.904       .  S
O921        V925   1.921       .  S
O922        V925   1.912       .  S
O923        V925   1.892       .  S
C926        C970   1.487       .  S
C927        C931   1.508       .  S
C928        C943   1.499   1_455  S
C929        C958   1.488       .  S
C930       C1340   1.607   1_545  S
C930        C946   1.596       .  S
C930       C1126   1.590       .  S
C931        C932   1.407       .  A
C932        C933   1.419       .  A
C932        H941   1.082       .  S
C933        C934   1.436   1_455  A
C933        S937   1.811       .  S
C934       C1336   1.606       .  S
C935        C936   1.403       .  A
C935        H942   1.073       .  S
C936        S938   1.805       .  S
S937        H940   1.406       .  S
S938        H939   1.407       .  S
C943        C948   1.415       .  A
C944        C945   1.411       .  A
C944        H953   1.082       .  S
C945        S949   1.804       .  S
C946        C947   1.414       .  A
C947        C948   1.410       .  A
C947        H954   1.079       .  S
C948        S950   1.797       .  S
S949        H952   1.406       .  S
S950        H951   1.404       .  S
C955        C960   1.407   1_455  A
C956        C957   1.399       .  A
C956        H965   1.085       .  S
C957        S961   1.801       .  S
C958        C959   1.409   1_455  A
C959        C960   1.396       .  A
C959        H966   1.083       .  S
C960        S962   1.802       .  S
S961        H964   1.408       .  S
S962        H963   1.403       .  S
C967        C968   1.397       .  A
C968        C969   1.403       .  A
C968        H977   1.083       .  S
C969        C970   1.421       .  A
C969        S973   1.809       .  S
C971        C972   1.396       .  A
C971        H978   1.082       .  S
C972        S974   1.809       .  S
S973        H976   1.407       .  S
C979        C980   1.401   1_455  A
C980        C981   1.394       .  A
C980        H989   1.084       .  S
C981        C982   1.415   1_655  A
C981        S985   1.808       .  S
C983        C984   1.400       .  A
C983        H990   1.084       .  S
C984        S986   1.802       .  S
S985        H988   1.402       .  S
S986        H987   1.407       .  S
C991        C996   1.414   1_455  A
C992        C993   1.398       .  A
C992       H1001   1.084       .  S
C993        S997   1.804       .  S
C994        C995   1.402   1_455  A
C995        C996   1.398       .  A
C995       H1002   1.081       .  S
C996        S998   1.802       .  S
S997       H1000   1.406       .  S
S998        H999   1.408       .  S
C1003      C1008   1.411       .  A
C1004      C1005   1.397       .  A
C1004      H1013   1.084       .  S
C1005      S1009   1.802       .  S
C1006      C1007   1.403       .  A
C1007      C1008   1.395       .  A
C1007      H1014   1.083       .  S
C1008      S1010   1.805       .  S
S1009      H1012   1.408       .  S
S1010      H1011   1.406       .  S
C1015      C1016   1.398   1_455  A
C1016      C1017   1.397       .  A
C1016      H1025   1.083       .  S
C1017      C1018   1.417   1_655  A
C1017      S1021   1.802       .  S
C1019      C1020   1.398       .  A
C1019      H1026   1.082       .  S
C1020      S1022   1.807       .  S
S1021      H1024   1.408       .  S
S1022      H1429   1.407       .  S
H1023      S1428   1.407       .  S
C1027      C1032   1.417   1_455  A
C1028      C1029   1.394       .  A
C1028      H1037   1.084       .  S
C1029      S1033   1.806       .  S
C1030      C1031   1.400   1_455  A
C1031      C1032   1.398       .  A
C1031      H1038   1.084       .  S
C1032      S1034   1.802       .  S
S1033      H1036   1.407       .  S
S1034      H1035   1.408       .  S
C1039      C1040   1.406   1_455  A
C1040      C1041   1.392       .  A
C1040      H1049   1.084       .  S
C1041      C1042   1.408   1_655  A
C1041      S1045   1.807       .  S
C1043      C1044   1.404       .  A
C1043      H1050   1.083       .  S
C1044      S1046   1.808       .  S
S1045      H1048   1.404       .  S
S1046      H1047   1.407       .  S
C1051      C1056   1.419       .  A
C1052      C1053   1.408       .  A
C1052      H1061   1.083       .  S
C1053      S1057   1.804       .  S
C1054      C1055   1.414       .  A
C1055      C1056   1.415       .  A
C1055      H1062   1.079       .  S
C1056      S1058   1.798       .  S
S1057      H1060   1.407       .  S
S1058      H1059   1.404       .  S
C1063      C1064   1.389   1_455  A
C1064      C1065   1.408       .  A
C1064      H1073   1.084       .  S
C1065      C1066   1.459       .  A
C1065      S1069   1.814       .  S
C1066      C1313   1.604       .  S
C1067      C1068   1.416       .  A
C1067      H1074   1.083       .  S
C1068      S1070   1.799       .  S
S1069      H1072   1.408       .  S
S1070      H1071   1.405       .  S
C1075      C1482   1.403       .  A
C1075      C1080   1.400       .  A
C1076      C1481   1.403       .  A
C1076      C1077   1.413       .  A
C1076      H1085   1.083       .  S
C1077      C1484   1.436       .  A
C1077      S1081   1.808       .  S
C1078      C1483   1.436       .  A
C1078      C1079   1.430       .  A
C1079      C1080   1.399       .  A
C1079      H1086   1.083       .  S
C1080      S1082   1.804       .  S
S1081      H1084   1.407       .  S
S1082      H1083   1.406       .  S
C1087      C1494   1.405       .  A
C1087      C1092   1.401       .  A
C1088      C1493   1.406       .  A
C1088      C1089   1.416       .  A
C1088      H1097   1.082       .  S
C1089      C1496   1.435       .  A
C1089      S1093   1.806       .  S
C1090      C1495   1.435       .  A
C1090      C1091   1.432       .  A
C1091      C1092   1.398       .  A
C1091      H1098   1.077       .  S
C1092      S1094   1.805       .  S
S1093      H1096   1.407       .  S
S1094      H1095   1.407       .  S
C1099      C1100   1.403       .  A
C1099      C1510   1.412       .  A
C1100      C1101   1.401       .  A
C1100      H1109   1.084       .  S
C1101      C1102   1.415       .  A
C1101      S1105   1.802       .  S
C1102      C1509   1.402       .  A
C1103      C1508   1.404   1_545  A
C1103      C1104   1.392       .  A
C1103      H1110   1.083       .  S
C1104      C1505   1.410   1_545  A
C1104      S1106   1.805       .  S
S1105      H1108   1.408       .  S
S1106      H1107   1.406       .  S
C1111      C1518   1.401       .  A
C1111      C1116   1.413       .  A
C1112      C1517   1.402   1_545  A
C1112      C1113   1.400       .  A
C1112      H1121   1.084       .  S
C1113      C1520   1.416   1_545  A
C1113      S1117   1.802       .  S
C1114      C1519   1.415       .  A
C1114      C1115   1.402       .  A
C1115      C1116   1.391       .  A
C1115      H1122   1.084       .  S
C1116      S1118   1.809       .  S
S1117      H1120   1.408       .  S
S1118      H1119   1.404       .  S
C1123      C1124   1.402       .  A
C1123      C1534   1.401       .  A
C1124      C1125   1.415       .  A
C1124      H1133   1.083   1_545  S
C1125      C1126   1.439       .  A
C1125      S1129   1.813       .  S
C1126      C1533   1.428       .  A
C1127      C1532   1.428       .  A
C1127      C1128   1.404       .  A
C1127      H1134   1.083       .  S
C1128      C1529   1.403       .  A
C1128      S1130   1.806       .  S
S1129      H1132   1.406       .  S
S1130      H1131   1.404       .  S
C1135      C1136   1.403       .  A
C1135      C1546   1.403   1_565  A
C1136      C1137   1.414       .  A
C1136      H1145   1.081       .  S
C1137      C1138   1.438   1_565  A
C1137      S1141   1.812       .  S
C1138      C1545   1.428       .  A
C1139      C1544   1.428       .  A
C1139      C1140   1.400       .  A
C1139      H1146   1.074       .  S
C1140      C1541   1.404       .  A
C1140      S1142   1.805       .  S
S1141      H1144   1.406       .  S
S1142      H1143   1.408       .  S
C1147      C1148   1.403       .  A
C1147      C1558   1.417       .  A
C1148      C1149   1.393       .  A
C1148      H1157   1.084       .  S
C1149      C1150   1.412       .  A
C1149      S1153   1.805       .  S
C1150      C1557   1.401       .  A
C1151      C1556   1.399   1_545  A
C1151      C1152   1.397       .  A
C1151      H1158   1.084       .  S
C1152      C1553   1.419   1_545  A
C1152      S1154   1.802       .  S
S1153      H1156   1.407       .  S
S1154      H1155   1.408       .  S
C1159      C1566   1.401       .  A
C1159      C1164   1.407       .  A
C1160      C1565   1.400   1_545  A
C1160      C1161   1.396       .  A
C1160      H1169   1.084       .  S
C1161      C1568   1.417   1_545  A
C1161      S1165   1.802       .  S
C1162      C1567   1.415       .  A
C1162      C1163   1.407       .  A
C1163      C1164   1.402       .  A
C1163      H1170   1.082       .  S
C1164      S1166   1.804       .  S
S1165      H1168   1.408       .  S
S1166      H1167   1.407       .  S
C1171      C1172   1.398   1_565  A
C1171      C1582   1.408       .  A
C1172      C1173   1.394       .  A
C1172      H1181   1.085       .  S
C1173      C1174   1.420   1_545  A
C1173      S1177   1.801       .  S
C1174      C1581   1.408       .  A
C1175      C1580   1.410       .  A
C1175      C1176   1.402       .  A
C1175      H1182   1.082       .  S
C1176      C1577   1.405       .  A
C1176      S1178   1.804       .  S
S1177      H1180   1.408       .  S
S1178      H1179   1.407       .  S
C1183      C1184   1.406   1_565  A
C1183      C1594   1.419       .  A
C1184      C1185   1.398       .  A
C1184      H1193   1.084       .  S
C1185      C1186   1.413   1_545  A
C1185      S1189   1.806       .  S
C1186      C1593   1.399       .  A
C1187      C1592   1.401       .  A
C1187      C1188   1.398       .  A
C1187      H1194   1.081       .  S
C1188      C1589   1.417       .  A
C1188      S1190   1.802       .  S
S1189      H1192   1.400       .  S
S1190      H1191   1.408       .  S
C1195      C1196   1.401       .  A
C1195      C1606   1.416       .  A
C1196      C1197   1.395       .  A
C1196      H1205   1.084       .  S
C1197      C1198   1.416       .  A
C1197      S1201   1.808       .  S
C1198      C1605   1.401       .  A
C1199      C1604   1.402   1_545  A
C1199      C1200   1.398       .  A
C1199      H1206   1.083       .  S
C1200      C1601   1.417   1_545  A
C1200      S1202   1.803       .  S
S1201      H1204   1.404       .  S
S1202      H1203   1.408       .  S
C1207      C1208   1.400       .  A
C1207      C1618   1.413       .  A
C1208      C1209   1.395       .  A
C1208      H1217   1.082       .  S
C1209      C1210   1.417       .  A
C1209      S1213   1.802       .  S
C1210      C1617   1.405       .  A
C1211      C1616   1.403   1_545  A
C1211      C1212   1.396       .  A
C1211      H1218   1.084       .  S
C1212      C1613   1.414   1_545  A
C1212      S1214   1.807       .  S
S1213      H1216   1.408       .  S
S1214      H1215   1.400       .  S
C1219      C1224   1.395       .  A
C1219      C1592   1.477       .  S
C1220      C1613   1.472       .  S
C1221      C1222   1.399       .  A
C1222      C1604   1.480       .  S
C1223      C1577   1.478       .  S
O1227      V1235   1.895       .  S
O1227      C1237   1.264       .  A
O1228      V1235   1.898   1_554  S
O1228      C1238   1.265       .  A
O1229      V1235   1.893   1_554  S
O1229      C1239   1.263       .  A
O1230      V1235   1.896       .  S
O1230      C1240   1.265       .  A
O1231      V1236   1.894       .  S
O1232      V1236   1.895   1_554  S
O1233      V1236   1.892   1_554  S
O1234      V1236   1.892       .  S
C1237      C1568   1.483       .  S
C1238      C1601   1.480       .  S
C1239      C1616   1.477       .  S
C1240      C1553   1.478       .  S
O1241      V1249   1.907       .  S
O1241      C1251   1.267       .  A
O1242      V1249   1.899       .  S
O1242      C1252   1.263       .  A
O1243      V1249   1.895       .  S
O1243      C1253   1.264       .  A
O1244      V1249   1.909       .  S
O1244      C1254   1.265       .  A
O1245      V1250   1.912       .  S
O1246      V1250   1.896       .  S
O1247      V1250   1.899       .  S
O1248      V1250   1.911       .  S
C1251      C1541   1.498       .  S
C1252      C1580   1.489       .  S
C1253      C1589   1.482       .  S
C1254      C1529   1.488       .  S
C1255      C1256   1.410       .  A
C1255      C1565   1.474       .  S
C1256      C1517   1.475       .  S
C1257      C1258   1.396       .  A
C1257      H1262   1.085       .  S
C1258      C1259   1.407       .  A
C1258      C1505   1.474       .  S
C1259      C1260   1.400       .  A
C1259      C1556   1.471       .  S
C1260      H1261   1.085       .  S
O1263      V1271   1.905       .  S
O1263      C1273   1.266       .  A
O1264      V1271   1.911       .  S
O1264      C1274   1.269   1_565  A
O1265      V1271   1.901       .  S
O1265      C1275   1.262   1_565  A
O1266      V1271   1.888       .  S
O1266      C1276   1.262       .  A
O1267      V1272   1.900       .  S
O1268      V1272   1.910       .  S
O1269      V1272   1.904       .  S
O1270      V1272   1.885       .  S
C1273      C1508   1.477       .  S
C1274      C1493   1.494       .  S
C1275      C1481   1.480       .  S
C1276      C1520   1.477       .  S
O1277      V1285   1.927       .  S
O1278      V1285   1.904       .  S
O1279      V1285   1.887       .  S
O1280      V1285   1.915       .  S
O1281      V1286   1.915       .  S
O1281      C1290   1.271   1_655  A
O1282      V1286   1.897       .  S
O1282      C1289   1.264   1_655  A
O1283      V1286   1.885       .  S
O1283      C1288   1.262   1_655  A
O1284      V1286   1.911       .  S
O1284      C1287   1.265       .  A
C1287      C1457   1.500       .  S
C1288      C1445   1.483       .  S
C1289      C1433   1.478       .  S
C1290      C1469   1.509   1_455  S
C1291      C1292   1.405   1_655  A
C1291      C1448   1.467       .  S
C1292      C1421   1.467       .  S
C1293      C1294   1.398   1_445  A
C1293      H1298   1.085   1_455  S
C1294      C1295   1.410   1_655  A
C1294      C1409   1.476       .  S
C1295      C1296   1.399   1_565  A
C1295      C1436   1.472       .  S
C1296      H1297   1.086       .  S
O1299      V1307   1.892       .  S
O1299      C1309   1.264   1_655  A
O1300      V1307   1.892       .  S
O1300      C1310   1.262   1_655  A
O1301      V1307   1.902       .  S
O1301      C1311   1.266   1_655  A
O1302      V1307   1.899       .  S
O1302      C1312   1.265   1_655  A
O1303      V1308   1.889       .  S
O1304      V1308   1.889       .  S
O1305      V1308   1.899       .  S
O1306      V1308   1.897       .  S
C1309      C1385   1.475       .  S
C1310      C1424   1.482       .  S
C1311      C1412   1.480   1_455  S
C1312      C1397   1.475       .  S
C1313      C1460   1.600   1_545  S
C1313      C1484   1.576       .  S
C1314      C1315   1.408       .  A
C1314      C1400   1.476       .  S
C1315      C1373   1.471       .  S
C1316      C1317   1.398   1_545  A
C1316      H1321   1.087       .  S
C1317      C1318   1.413       .  A
C1317      C1361   1.475       .  S
C1318      C1319   1.401   1_565  A
C1318      C1388   1.480       .  S
C1319      H1320   1.086       .  S
O1322      V1330   1.894       .  S
O1322      C1332   1.265   1_655  A
O1323      V1330   1.910       .  S
O1323      C1333   1.268   1_655  A
O1324      V1330   1.914       .  S
O1324      C1334   1.266   1_655  A
O1325      V1330   1.892       .  S
O1325      C1335   1.264   1_655  A
O1326      V1331   1.901       .  S
O1327      V1331   1.920       .  S
O1328      V1331   1.915       .  S
O1329      V1331   1.897       .  S
C1332      C1376   1.482       .  S
C1333      C1337   1.504       .  S
C1334      C1349   1.500   1_455  S
C1335      C1364   1.488       .  S
C1336      C1352   1.597       .  S
C1336      C1532   1.591       .  S
C1337      C1338   1.406       .  A
C1338      C1339   1.418       .  A
C1338      H1347   1.081       .  S
C1339      C1340   1.437   1_455  A
C1339      S1343   1.809       .  S
C1341      C1342   1.404       .  A
C1341      H1348   1.076       .  S
C1342      S1344   1.804       .  S
S1343      H1346   1.407       .  S
S1344      H1345   1.407       .  S
C1349      C1354   1.416       .  A
C1350      C1351   1.411       .  A
C1350      H1359   1.083       .  S
C1351      S1355   1.804       .  S
C1352      C1353   1.415       .  A
C1353      C1354   1.411       .  A
C1353      H1360   1.080       .  S
C1354      S1356   1.799       .  S
S1355      H1358   1.407       .  S
S1356      H1357   1.404       .  S
C1361      C1366   1.406   1_455  A
C1362      C1363   1.400       .  A
C1362      H1371   1.084       .  S
C1363      S1367   1.801       .  S
C1364      C1365   1.410   1_455  A
C1365      C1366   1.396       .  A
C1365      H1372   1.083       .  S
C1366      S1368   1.801       .  S
S1367      H1370   1.408       .  S
S1368      H1369   1.405       .  S
C1373      C1374   1.399       .  A
C1374      C1375   1.404       .  A
C1374      H1383   1.082       .  S
C1375      C1376   1.419       .  A
C1375      S1379   1.808       .  S
C1377      C1378   1.396       .  A
C1377      H1384   1.082       .  S
C1378      S1380   1.809       .  S
S1379      H1382   1.407       .  S
C1385      C1386   1.399   1_455  A
C1386      C1387   1.393       .  A
C1386      H1395   1.084       .  S
C1387      C1388   1.418   1_655  A
C1387      S1391   1.808       .  S
C1389      C1390   1.398       .  A
C1389      H1396   1.083       .  S
C1390      S1392   1.802       .  S
S1391      H1394   1.403       .  S
S1392      H1393   1.407       .  S
C1397      C1402   1.416   1_455  A
C1398      C1399   1.394       .  A
C1398      H1407   1.084       .  S
C1399      S1403   1.806       .  S
C1400      C1401   1.401   1_455  A
C1401      C1402   1.397       .  A
C1401      H1408   1.083       .  S
C1402      S1404   1.802       .  S
S1403      H1406   1.407       .  S
S1404      H1405   1.407       .  S
C1409      C1414   1.413       .  A
C1410      C1411   1.397       .  A
C1410      H1419   1.083       .  S
C1411      S1415   1.802       .  S
C1412      C1413   1.403       .  A
C1413      C1414   1.397       .  A
C1413      H1420   1.084       .  S
C1414      S1416   1.805       .  S
S1415      H1418   1.408       .  S
S1416      H1417   1.406       .  S
C1421      C1422   1.396   1_455  A
C1422      C1423   1.396       .  A
C1422      H1431   1.083       .  S
C1423      C1424   1.420   1_655  A
C1423      S1427   1.802       .  S
C1425      C1426   1.398       .  A
C1425      H1432   1.082       .  S
C1426      S1428   1.807       .  S
S1427      H1430   1.407       .  S
C1433      C1438   1.417   1_455  A
C1434      C1435   1.393       .  A
C1434      H1443   1.083       .  S
C1435      S1439   1.806       .  S
C1436      C1437   1.400   1_455  A
C1437      C1438   1.399       .  A
C1437      H1444   1.084       .  S
C1438      S1440   1.801       .  S
S1439      H1442   1.406       .  S
S1440      H1441   1.408       .  S
C1445      C1446   1.408   1_455  A
C1446      C1447   1.392       .  A
C1446      H1455   1.083       .  S
C1447      C1448   1.407       .  A
C1447      S1451   1.808       .  S
C1449      C1450   1.405       .  A
C1449      H1456   1.082       .  S
C1450      S1452   1.807       .  S
S1451      H1454   1.403       .  S
S1452      H1453   1.407       .  S
C1457      C1462   1.418       .  A
C1458      C1459   1.410       .  A
C1458      H1467   1.083       .  S
C1459      S1463   1.806       .  S
C1460      C1461   1.414       .  A
C1461      C1462   1.414       .  A
C1461      H1468   1.079       .  S
C1462      S1464   1.798       .  S
S1463      H1466   1.407       .  S
S1464      H1465   1.404       .  S
C1469      C1470   1.390       .  A
C1470      C1471   1.408       .  A
C1470      H1479   1.084       .  S
C1471      C1472   1.460       .  A
C1471      S1475   1.812       .  S
C1473      C1474   1.414       .  A
C1473      H1480   1.083       .  S
C1474      S1476   1.800       .  S
S1475      H1478   1.408       .  S
S1476      H1477   1.405       .  S
C1481      C1486   1.401   1_545  A
C1482      C1483   1.413       .  A
C1482      H1491   1.084       .  S
C1483      S1487   1.807       .  S
C1484      C1485   1.431   1_545  A
C1485      C1486   1.401       .  A
C1485      H1492   1.083       .  S
C1486      S1488   1.805       .  S
S1487      H1490   1.407       .  S
S1488      H1489   1.405   1_565  S
C1493      C1498   1.401   1_545  A
C1494      C1495   1.415       .  A
C1494      H1503   1.083       .  S
C1495      S1499   1.804       .  S
C1496      C1497   1.433   1_545  A
C1497      C1498   1.397       .  A
C1497      H1504   1.075       .  S
C1498      S1500   1.805       .  S
S1499      H1502   1.407       .  S
S1500      H1501   1.407       .  S
C1505      C1506   1.402       .  A
C1506      C1507   1.401       .  A
C1506      H1515   1.083       .  S
C1507      C1508   1.416       .  A
C1507      S1511   1.801       .  S
C1509      C1510   1.391       .  A
C1509      H1516   1.084       .  S
C1510      S1512   1.806       .  S
S1511      H1514   1.408       .  S
S1512      H1513   1.407       .  S
C1517      C1522   1.414       .  A
C1518      C1519   1.398       .  A
C1518      H1527   1.083       .  S
C1519      S1523   1.801       .  S
C1520      C1521   1.402       .  A
C1521      C1522   1.393       .  A
C1521      H1528   1.084       .  S
C1522      S1524   1.809       .  S
S1523      H1526   1.408       .  S
S1524      H1525   1.404       .  S
C1529      C1530   1.402       .  A
C1530      C1531   1.416       .  A
C1530      H1539   1.083       .  S
C1531      C1532   1.439       .  A
C1531      S1535   1.813       .  S
C1533      C1534   1.403       .  A
C1533      H1540   1.083       .  S
C1534      S1536   1.803       .  S
S1535      H1538   1.406       .  S
S1536      H1537   1.406   1_545  S
C1541      C1542   1.405       .  A
C1542      C1543   1.415       .  A
C1542      H1551   1.082       .  S
C1543      C1544   1.437       .  A
C1543      S1547   1.811       .  S
C1545      C1546   1.400       .  A
C1545      H1552   1.074       .  S
C1546      S1548   1.805       .  S
S1547      H1550   1.407       .  S
S1548      H1549   1.408       .  S
C1553      C1554   1.404       .  A
C1554      C1555   1.395       .  A
C1554      H1563   1.084       .  S
C1555      C1556   1.411       .  A
C1555      S1559   1.806       .  S
C1557      C1558   1.398       .  A
C1557      H1564   1.084       .  S
C1558      S1560   1.802       .  S
S1559      H1562   1.406       .  S
S1560      H1561   1.408       .  S
C1565      C1570   1.406       .  A
C1566      C1567   1.394       .  A
C1566      H1575   1.084       .  S
C1567      S1571   1.803       .  S
C1568      C1569   1.409       .  A
C1569      C1570   1.402       .  A
C1569      H1576   1.082       .  S
C1570      S1572   1.804       .  S
S1571      H1574   1.408       .  S
S1572      H1573   1.407       .  S
C1577      C1578   1.401       .  A
C1578      C1579   1.397       .  A
C1578      H1587   1.084       .  S
C1579      C1580   1.418       .  A
C1579      S1583   1.800       .  S
C1581      C1582   1.398       .  A
C1581      H1588   1.084       .  S
C1582      S1584   1.802       .  S
S1583      H1586   1.408       .  S
S1584      H1585   1.405       .  S
C1589      C1590   1.405       .  A
C1590      C1591   1.397       .  A
C1590      H1599   1.084       .  S
C1591      C1592   1.413       .  A
C1591      S1595   1.804       .  S
C1593      C1594   1.398       .  A
C1593      H1600   1.084       .  S
C1594      S1596   1.802       .  S
S1595      H1598   1.401       .  S
S1596      H1597   1.408       .  S
C1601      C1602   1.403       .  A
C1602      C1603   1.397       .  A
C1602      H1611   1.084       .  S
C1603      C1604   1.415       .  A
C1603      S1607   1.807       .  S
C1605      C1606   1.398       .  A
C1605      H1612   1.084       .  S
C1606      S1608   1.803       .  S
S1607      H1610   1.402       .  S
S1608      H1609   1.408       .  S
C1613      C1614   1.399       .  A
C1614      C1615   1.396       .  A
C1614      H1623   1.083       .  S
C1615      C1616   1.416       .  A
C1615      S1619   1.802       .  S
C1617      C1618   1.396       .  A
C1617      H1624   1.084       .  S
C1618      S1620   1.809       .  S
S1619      H1622   1.408       .  S
S1620      H1621   1.399       .  S
