geometry optimzed in LAMMPS
_audit_creation_date              2020-11-30 
_audit_creation_method            'lammps2cif' 
_symmetry_space_group_name_H-M    'P1' 
_symmetry_Int_Tables_number       1 
_symmetry_cell_setting            triclinic 
loop_ 
_symmetry_equiv_pos_as_xyz 
  x,y,z 
_cell_length_a                    37.45965126111072 
_cell_length_b                    37.859573522146846 
_cell_length_c                    34.29796496132608 
_cell_angle_alpha                 89.96586862035286 
_cell_angle_beta                  90.26318126980473 
_cell_angle_gamma                 119.59664163509711 
loop_ 
_atom_site_label 
_atom_site_type_symbol 
_atom_site_fract_x 
_atom_site_fract_y 
_atom_site_fract_z 
_atom_site_charge 
C1          C  0.21076882  0.20722024  0.15462226     0.02920
C2          C  0.20739806  0.20993852  0.11417999    -0.13230
C3          C  0.24017362  0.24057004  0.09242033     0.00420
C4          C  0.27405184  0.27119194  0.11357259    -0.11760
C5          C  0.27641820  0.26969554  0.15446947     0.02910
C6          C  0.24619749  0.23559735  0.17392043    -0.11180
H7          H  0.17940123  0.18742090  0.10037305     0.08500
H8          H  0.29916808  0.29612835  0.09877145     0.06030
H9          H  0.24959553  0.23143459  0.20464703     0.05880
C10         C  0.21885335  0.19988835  0.48756462     0.02920
C11         C  0.25264453  0.23111001  0.46872934    -0.13230
C12         C  0.27591661  0.26934864  0.48639044     0.00420
C13         C  0.26918162  0.27294528  0.02629703    -0.11760
C14         C  0.24071199  0.23897811  0.04835124     0.02910
C15         C  0.21395743  0.20302088  0.02760758    -0.11180
H16         H  0.25835580  0.22612340  0.43894168     0.08500
H17         H  0.28580333  0.30243292  0.03981410     0.06030
H18         H  0.18894492  0.17727591  0.04165401     0.05880
C19         C  0.25103662  0.48923520  0.15906832     0.02920
C20         C  0.25388933  0.49119876  0.11817864    -0.13230
C21         C  0.21955955  0.48359298  0.09494682     0.00420
C22         C  0.18250330  0.47418037  0.11373729    -0.11760
C23         C  0.17997659  0.47407636  0.15427611     0.02910
C24         C  0.21436106  0.48182949  0.17666051    -0.11180
H25         H  0.28279147  0.49823030  0.10496579     0.08500
H26         H  0.15477926  0.46563202  0.09719617     0.06030
H27         H  0.21202514  0.48064026  0.20814280     0.05880
C28         C  0.24557650  0.46876190  0.49100286     0.02920
C29         C  0.24830119  0.47385433  0.03153290    -0.13230
C30         C  0.22060403  0.48249156  0.05142008     0.00420
C31         C  0.19179930  0.48788998  0.02927111    -0.11760
C32         C  0.18544354  0.47765117  0.48968877     0.02910
C33         C  0.21266777  0.46792012  0.47088924    -0.11180
H34         H  0.27161773  0.47043085  0.04697173     0.08500
H35         H  0.17426682  0.50011762  0.04276402     0.06030
H36         H  0.20922361  0.46087247  0.44001143     0.05880
C37         C  0.99084341  0.24010974  0.15363407     0.02920
C38         C  0.98777260  0.23910622  0.11269874    -0.13230
C39         C  0.98756654  0.20713489  0.09089339     0.00420
C40         C  0.98977931  0.17592984  0.11186663    -0.11760
C41         C  0.99297101  0.17666472  0.15254632     0.02910
C42         C  0.99477092  0.20959134  0.17278252    -0.11180
H43         H  0.98551685  0.26331186  0.09847937     0.08500
H44         H  0.98803243  0.15013519  0.09726489     0.06030
H45         H  0.49731049  0.21049763  0.20431549     0.05880
C46         C  0.49328546  0.23926547  0.48331364     0.02920
C47         C  0.49349171  0.24055395  0.02434217    -0.13230
C48         C  0.48505508  0.20582378  0.04679569     0.00420
C49         C  0.47501373  0.16958431  0.02633083    -0.11760
C50         C  0.47718490  0.16873973  0.48566585     0.03030
C51         C  0.48659078  0.20378241  0.46442844    -0.11180
H52         H  0.50070556  0.26901158  0.03796990     0.08500
H53         H  0.46506993  0.14118110  0.04118459     0.06030
H54         H  0.48784958  0.20323376  0.43288560     0.05880
O55         O  0.38431672  0.50036262  0.28376758    -0.88390
C56         C  0.09744834  0.08903553  0.37734419     1.11650
O57         O  0.43589132  0.46856659  0.32187707    -1.36200
O58         O  0.06732185  0.09551900  0.27728523    -0.89870
O59         O  0.35333912  0.43342012  0.27503376    -0.90540
O60         O  0.43623663  0.42750246  0.23817292    -0.79360
O61         O  0.47549173  0.04899748  0.28671658    -1.01450
C62         C  0.05232943  0.47123307  0.24771861     1.21690
O63         O  0.48058624  0.42784489  0.32002494    -1.36340
Mn64       Mn  0.48000360  0.46911405  0.36360861     1.82050
O65         O  0.02063010  0.47206732  0.23771447    -0.78440
O66         O  0.10201982  0.06183975  0.27685180    -0.87830
C67         C  0.05687393  0.47173606  0.39012666     1.12780
C68         C  0.09574966  0.08967184  0.26391995     1.07500
O69         O  0.43769731  0.42607901  0.40340939    -0.79370
O70         O  0.02109104  0.01265082  0.32096333    -1.33070
O71         O  0.40093350  0.39003039  0.35676722    -0.98590
C72         C  0.48252065  0.35151546  0.26464890     1.06220
Mn73       Mn  0.07954207  0.01727175  0.31956709     1.48570
O74         O  0.44769019  0.34408432  0.27758977    -0.87780
Mn75       Mn  0.37870504  0.41371059  0.31977214     1.49560
O76         O  0.38766808  0.49917998  0.36973375    -0.91660
C77         C  0.47517905  0.04407908  0.25167101     1.19410
C78         C  0.35852662  0.46454285  0.37971072     1.11470
Mn79       Mn  0.47837279  0.47040278  0.27851238     1.80970
O80         O  0.06062672  0.47174382  0.35512027    -0.96810
Mn81       Mn  0.43081302  0.02156727  0.32468728     1.49260
C82         C  0.35818463  0.46830690  0.26671470     1.07990
Mn83       Mn  0.03609293  0.42615781  0.31902651     1.49930
C84         C  0.48521091  0.35372521  0.37651293     1.10890
O85         O  0.40101126  0.38931612  0.28414224    -1.02610
O86         O  0.10391801  0.06147749  0.36389434    -0.92280
C87         C  0.40599882  0.39492111  0.24923033     1.22180
O88         O  0.05953677  0.47171708  0.28245486    -1.03000
O89         O  0.06864333  0.09452588  0.36479865    -0.90400
O90         O  0.01843748  0.38187752  0.36232486    -0.90010
O91         O  0.35200224  0.43198515  0.36295167    -0.90030
Mn92       Mn  0.02299207  0.06966642  0.32193403     1.47860
O93         O  0.02441254  0.46959323  0.40260973    -0.78510
C94         C  0.40539461  0.39546606  0.39188856     1.15230
O95         O  0.47634999  0.01323264  0.23987605    -0.77240
O96         O  0.47991312  0.01081248  0.40468833    -0.76850
Mn97       Mn  0.42737659  0.36960421  0.32087292     1.51060
O98         O  0.01596026  0.38142870  0.27628082    -0.89210
O99         O  0.47794737  0.04753540  0.35937716    -0.96730
O100        O  0.44988119  0.34672512  0.36497409    -0.91740
C101        C  0.47856817  0.04184316  0.39415688     1.13020
C102        C  0.45057900  0.08692562  0.40939689    -0.20520
C103        C  0.47487117  0.07008346  0.42147372    -0.07080
C104        C  0.49660803  0.08292302  0.45708269     0.13790
C105        C  0.49539631  0.11407786  0.47835945    -0.20570
C106        C  0.47207275  0.13181258  0.46540967    -0.07090
C107        C  0.44753892  0.11623985  0.43154426     0.13770
C108        C  0.41720163  0.12904045  0.41813736    -0.23920
H109        H  0.43327181  0.07683119  0.38238088     0.15060
H110        H  0.01405155  0.12575278  0.00446447     0.15090
C111        C  0.02272744  0.06558624  0.47166414    -0.23870
H112        H  0.38655843  0.10169972  0.41406497     0.05300
H113        H  0.42723977  0.14519577  0.38983874     0.08530
H114        H  0.41322868  0.14876988  0.43947137     0.08530
H115        H  0.04633151  0.07039014  0.44968568     0.08510
H116        H  0.50316417  0.03256515  0.47719307     0.08510
H117        H  0.03875376  0.08019691  0.99932650     0.05290
C118        C  0.52045665  0.31769936  0.40284363    -0.20520
C119        C  0.48854755  0.32691039  0.40646815    -0.07080
C120        C  0.46108759  0.31017370  0.43811847     0.13790
C121        C  0.46545713  0.28404013  0.46437406    -0.20570
C122        C  0.49605784  0.27333643  0.45950928    -0.07090
C123        C  0.52456314  0.29121113  0.42878400     0.13770
C124        C  0.55976900  0.28323210  0.42252259    -0.23920
H125        H  0.54200646  0.33058306  0.37897627     0.15060
H126        H  0.44354230  0.27026977  0.98783263     0.15090
C127        C  0.42751714  0.32013364  0.44481740    -0.23870
H128        H  0.58908185  0.31252984  0.42232566     0.05300
H129        H  0.55593050  0.26783965  0.39400697     0.08530
H130        H  0.06233950  0.26422193  0.44572481     0.08530
H131        H  0.40449193  0.30746561  0.42093629     0.08510
H132        H  0.44132957  0.35352121  0.44578048     0.08510
H133        H  0.41127182  0.30751740  0.97275402     0.05290
C134        C  0.00321414  0.08679373  0.19221564    -0.20520
C135        C  0.47706167  0.07582176  0.22471056    -0.07080
C136        C  0.45693442  0.09849665  0.23271309     0.13790
C137        C  0.46137311  0.12889447  0.20696721    -0.20570
C138        C  0.48819237  0.14082582  0.17524226    -0.07090
C139        C  0.00990267  0.11962311  0.16792746     0.13770
C140        C  0.04168667  0.13240125  0.13630496    -0.23920
H141        H  0.01996061  0.07073428  0.18678619     0.15060
H142        H  0.44368235  0.14405150  0.21205321     0.15090
C143        C  0.42944072  0.09122185  0.26728110    -0.23870
H144        H  0.06156320  0.11854887  0.14047053     0.05300
H145        H  0.06171999  0.16585454  0.13654752     0.08530
H146        H  0.02670095  0.12236258  0.10741121     0.08530
H147        H  0.44385959  0.08975850  0.29501848     0.08510
H148        H  0.39979393  0.06378157  0.26189012     0.08510
H149        H  0.42219372  0.11613905  0.27113261     0.05290
C150        C  0.02044131  0.29094096  0.20668311    -0.20520
C151        C  0.48979230  0.27221588  0.17804685    -0.07080
C152        C  0.45574612  0.27891566  0.17858096     0.13790
C153        C  0.45404797  0.30492983  0.20700231    -0.20570
C154        C  0.48503113  0.32386135  0.23536161    -0.07090
C155        C  0.01759724  0.31493141  0.23623181     0.13770
C156        C  0.04697330  0.32661757  0.27038526    -0.23920
H157        H  0.04568279  0.28460583  0.20731712     0.15060
H158        H  0.42785848  0.30971104  0.20762338     0.15090
C159        C  0.42004159  0.25715173  0.15086920    -0.23870
H160        H  0.06760213  0.31345866  0.26785891     0.05300
H161        H  0.02936087  0.31507488  0.29784531     0.08530
H162        H  0.06680215  0.35989833  0.27246263     0.08530
H163        H  0.40731574  0.22381647  0.15328794     0.08510
H164        H  0.42998203  0.26697335  0.12051227     0.08510
H165        H  0.39494950  0.26385348  0.15733110     0.05290
C166        C  0.34327320  0.99697817  0.43571882    -0.20520
C167        C  0.33067568  0.46254750  0.41179383    -0.07080
C168        C  0.29097938  0.42844606  0.41776262     0.13790
C169        C  0.26521232  0.43032529  0.44621122    -0.20570
C170        C  0.27727039  0.46541970  0.46838504    -0.07090
C171        C  0.31694354  0.99905784  0.46346401     0.13770
C172        C  0.33076067  0.03802515  0.48578986    -0.23920
H173        H  0.37344743  0.02309766  0.43189423     0.15060
H174        H  0.23446151  0.40488749  0.44994419     0.15090
C175        C  0.27426429  0.39045549  0.39347473    -0.23870
H176        H  0.36230886  0.06164058  0.47765145     0.05300
H177        H  0.33084603  0.03238453  0.51752044     0.08530
H178        H  0.30970724  0.05015565  0.47964942     0.08530
H179        H  0.29383028  0.37654392  0.39774305     0.08510
H180        H  0.27354905  0.39775794  0.36222775     0.08510
H181        H  0.24255013  0.36751395  0.40196281     0.05290
C182        C  0.08069546  0.46058636  0.45446842    -0.20520
C183        C  0.09013444  0.47466095  0.41597668    -0.07080
C184        C  0.13106153  0.48995365  0.40255814     0.13790
C185        C  0.16144994  0.49440256  0.42895534    -0.20570
C186        C  0.15198066  0.47868047  0.46682215    -0.07090
C187        C  0.11057596  0.46063747  0.47954277     0.13770
C188        C  0.09664571  0.43893455  0.01808380    -0.23920
H189        H  0.04926494  0.44757347  0.46439025     0.15060
H190        H  0.19297545  0.00853238  0.41910567     0.15090
C191        C  0.14364460  0.49989665  0.36033932    -0.23870
H192        H  0.06262456  0.42137196  0.01998113     0.05300
H193        H  0.10739245  0.46099121  0.04246332     0.08530
H194        H  0.10814154  0.41712996  0.02171456     0.08530
H195        H  0.13887504  0.02475135  0.34981100     0.08510
H196        H  0.12609472  0.47244481  0.34194278     0.08510
H197        H  0.17666681  0.00996971  0.35594286     0.05290
C198        C  0.29883879  0.46320143  0.17390228    -0.20520
C199        C  0.28387526  0.48951778  0.18378669    -0.07080
C200        C  0.29586752  0.51049435  0.21980770     0.13790
C201        C  0.31833433  0.50116034  0.24646206    -0.20570
C202        C  0.33186590  0.47351155  0.23739428    -0.07090
C203        C  0.32334241  0.45561880  0.19993689     0.13770
C204        C  0.33974299  0.42854946  0.18722203    -0.23920
H205        H  0.29001897  0.44721662  0.14625300     0.15060
H206        H  0.32593630  0.51628243  0.27459502     0.15090
C207        C  0.28652866  0.54364944  0.23079076    -0.23870
H208        H  0.33243677  0.41926849  0.15618871     0.05300
H209        H  0.32503418  0.40088816  0.20510325     0.08530
H210        H  0.37361305  0.44425916  0.19098856     0.08530
H211        H  0.26587675  0.53404044  0.25645165     0.08510
H212        H  0.27216982  0.05179027  0.20666699     0.08510
H213        H  0.31556595  0.57161038  0.23848308     0.05290
C214        C  0.09740686  0.44382938  0.22992461    -0.20520
C215        C  0.07991734  0.46777475  0.21932552    -0.07080
C216        C  0.09110578  0.48906791  0.18360403     0.13790
C217        C  0.12278499  0.48920606  0.16167263    -0.20570
C218        C  0.14166581  0.46675411  0.17364132    -0.07090
C219        C  0.12617894  0.44109316  0.20641109     0.13770
C220        C  0.13860877  0.40995366  0.21698921    -0.23920
H221        H  0.08873776  0.42713023  0.25700456     0.15060
H222        H  0.13405169  0.50831174  0.13605095     0.15090
C223        C  0.07201388  0.51383971  0.16990950    -0.23870
H224        H  0.11088113  0.37946363  0.21784405     0.05300
H225        H  0.15373476  0.41707605  0.24607446     0.08530
H226        H  0.15933534  0.40783702  0.19535894     0.08530
H227        H  0.07653384  0.03694811  0.19216748     0.08510
H228        H  0.03865521  0.49363114  0.16475680     0.08510
H229        H  0.08582751  0.52993650  0.14221375     0.05290
C230        C  0.33590082  0.33654163  0.40057631    -0.20520
C231        C  0.37226056  0.36640285  0.41833123    -0.07080
C232        C  0.37451641  0.36755979  0.45960847     0.13790
C233        C  0.34323375  0.33543431  0.48109698    -0.20570
C234        C  0.30709980  0.30493779  0.46300552    -0.07090
C235        C  0.30238026  0.30848610  0.42228377     0.13770
C236        C  0.26195079  0.28581186  0.40066992    -0.23920
H237        H  0.33216637  0.33664977  0.36920670     0.15060
H238        H  0.34743674  0.33440938  0.01221516     0.15090
C239        C  0.40888549  0.40251587  0.48140261    -0.23870
H240        H  0.25724931  0.30690469  0.38167787     0.05300
H241        H  0.23534464  0.27244945  0.42059124     0.08530
H242        H  0.26198069  0.26205954  0.38172125     0.08530
H243        H  0.40907810  0.43112427  0.47379382     0.08510
H244        H  0.43907628  0.40565603  0.47410772     0.08510
H245        H  0.40497766  0.39848888  0.01347379     0.05290
C246        C  0.16433602  0.18300409  0.43891283    -0.20520
C247        C  0.18499323  0.16904898  0.46310445    -0.07080
C248        C  0.17485113  0.12794172  0.46108549     0.13790
C249        C  0.14526507  0.10214283  0.43366593    -0.20570
C250        C  0.12553203  0.11653558  0.40827479    -0.07090
C251        C  0.13507060  0.15766277  0.41146289     0.13770
C252        C  0.11630946  0.17606293  0.38501052    -0.23920
H253        H  0.17194236  0.21452347  0.44102961     0.15060
H254        H  0.13796422  0.07070666  0.43167956     0.15090
C255        C  0.19597860  0.11167231  0.98691360    -0.23870
H256        H  0.12944920  0.20913768  0.39032907     0.05300
H257        H  0.08277259  0.16151095  0.39021735     0.08530
H258        H  0.12224052  0.17212342  0.35405797     0.08530
H259        H  0.18988035  0.11492516  0.01796244     0.08510
H260        H  0.22958756  0.12881368  0.98174145     0.08510
H261        H  0.18492100  0.07899272  0.98114272     0.05290
C262        C  0.35077659  0.32311572  0.16386962    -0.20520
C263        C  0.30992215  0.30347711  0.17746719    -0.07080
C264        C  0.30142283  0.31685044  0.21308955     0.13790
C265        C  0.33392569  0.34478655  0.23612524    -0.20570
C266        C  0.37444502  0.36482823  0.22250686    -0.07090
C267        C  0.38283569  0.35495796  0.18520498     0.13770
C268        C  0.42524831  0.37751690  0.16801472    -0.23920
H269        H  0.35771079  0.31382360  0.13638498     0.15060
H270        H  0.32705536  0.35317408  0.26417635     0.15090
C271        C  0.25840992  0.30550752  0.22563742    -0.23870
H272        H  0.42687249  0.36437911  0.13957148     0.05300
H273        H  0.44801989  0.37651816  0.18808605     0.08530
H274        H  0.43377657  0.40972048  0.16313536     0.08530
H275        H  0.24338016  0.27584181  0.24079161     0.08510
H276        H  0.23980289  0.30489949  0.20008408     0.08510
H277        H  0.25877812  0.32822617  0.24638239     0.05290
C278        C  0.18424843  0.14302141  0.19098307    -0.20520
C279        C  0.17791664  0.17436969  0.17775630    -0.07080
C280        C  0.14396624  0.17714140  0.19140133     0.13790
C281        C  0.11668717  0.14800881  0.21787023    -0.20570
C282        C  0.12357371  0.11708060  0.23265022    -0.07090
C283        C  0.15830004  0.11481519  0.21866946     0.13770
C284        C  0.17023145  0.08450246  0.23359815    -0.23920
H285        H  0.21109512  0.14194786  0.18089740     0.15060
H286        H  0.09076085  0.15055916  0.22819050     0.15090
C287        C  0.13782535  0.21208942  0.17952815    -0.23870
H288        H  0.19818725  0.08779560  0.21912700     0.05300
H289        H  0.14533754  0.05314268  0.22790507     0.08530
H290        H  0.17697879  0.08908142  0.26532490     0.08530
H291        H  0.13483931  0.21246548  0.14734496     0.08510
H292        H  0.16462165  0.24115994  0.18909473     0.08510
H293        H  0.10981783  0.20991054  0.19281461     0.05290
C294        C  0.21076883  0.20722024  0.65462227     0.02920
C295        C  0.20739807  0.20993851  0.61418000    -0.13230
C296        C  0.24017363  0.24057004  0.59242034     0.00420
C297        C  0.27405185  0.27119194  0.61357260    -0.11760
C298        C  0.27641820  0.26969554  0.65446948     0.02910
C299        C  0.24619749  0.23559735  0.67392043    -0.11180
H300        H  0.17940124  0.18742089  0.60037305     0.08500
H301        H  0.29916809  0.29612834  0.59877145     0.06030
H302        H  0.24959553  0.23143458  0.70464703     0.05880
C303        C  0.21885334  0.19988836  0.98756462     0.02920
C304        C  0.25264452  0.23111002  0.96872933    -0.13230
C305        C  0.27591660  0.26934865  0.98639044     0.00420
C306        C  0.26918163  0.27294527  0.52629703    -0.11760
C307        C  0.24071200  0.23897810  0.54835125     0.02910
C308        C  0.21395744  0.20302088  0.52760759    -0.11180
H309        H  0.25835579  0.22612341  0.93894168     0.08500
H310        H  0.28580334  0.30243291  0.53981410     0.06030
H311        H  0.18894492  0.17727591  0.54165401     0.05880
C312        C  0.25103661  0.48923518  0.65906832     0.02920
C313        C  0.25388932  0.49119875  0.61817865    -0.13230
C314        C  0.21955954  0.48359297  0.59494683     0.00420
C315        C  0.18250329  0.47418035  0.61373729    -0.11760
C316        C  0.17997658  0.47407634  0.65427611     0.02910
C317        C  0.21436104  0.48182947  0.67666051    -0.11180
H318        H  0.28279146  0.49823029  0.60496580     0.08500
H319        H  0.15477925  0.46563200  0.59719617     0.06030
H320        H  0.21202513  0.48064023  0.70814280     0.05880
C321        C  0.24557651  0.46876190  0.99100286     0.02920
C322        C  0.24830118  0.47385432  0.53153290    -0.13230
C323        C  0.22060403  0.48249155  0.55142008     0.00420
C324        C  0.19179929  0.48788997  0.52927111    -0.11760
C325        C  0.18544354  0.47765118  0.98968877     0.02910
C326        C  0.21266778  0.46792013  0.97088924    -0.11180
H327        H  0.27161773  0.47043085  0.54697173     0.08500
H328        H  0.17426681  0.50011761  0.54276402     0.06030
H329        H  0.20922361  0.46087248  0.94001143     0.05880
C330        C  0.99084340  0.24010973  0.65363408     0.02920
C331        C  0.98777259  0.23910621  0.61269874    -0.13230
C332        C  0.98756654  0.20713489  0.59089339     0.00420
C333        C  0.98977931  0.17592983  0.61186663    -0.11760
C334        C  0.99297099  0.17666471  0.65254632     0.02910
C335        C  0.99477090  0.20959133  0.67278252    -0.11180
H336        H  0.98551685  0.26331186  0.59847938     0.08500
H337        H  0.98803243  0.15013519  0.59726488     0.06030
H338        H  0.49731046  0.21049761  0.70431550     0.05880
C339        C  0.49328545  0.23926546  0.98331364     0.02920
C340        C  0.49349170  0.24055396  0.52434218    -0.13230
C341        C  0.48505508  0.20582379  0.54679570     0.00420
C342        C  0.47501374  0.16958432  0.52633083    -0.11760
C343        C  0.47718488  0.16873971  0.98566585     0.03030
C344        C  0.48659076  0.20378239  0.96442843    -0.11180
H345        H  0.50070555  0.26901158  0.53796990     0.08500
H346        H  0.46506994  0.14118111  0.54118459     0.06030
H347        H  0.48784955  0.20323374  0.93288560     0.05880
O348        O  0.38431672  0.50036262  0.78376758    -0.88390
C349        C  0.09744833  0.08903553  0.87734418     1.11650
O350        O  0.43589133  0.46856659  0.82187707    -1.36200
O351        O  0.06732184  0.09551899  0.77728523    -0.89870
O352        O  0.35333912  0.43342012  0.77503376    -0.90540
O353        O  0.43623663  0.42750246  0.73817292    -0.79360
O354        O  0.47549172  0.04899747  0.78671658    -1.01450
C355        C  0.05232942  0.47123307  0.74771862     1.21690
O356        O  0.48058625  0.42784490  0.82002494    -1.36340
Mn357      Mn  0.48000360  0.46911405  0.86360861     1.82050
O358        O  0.02063010  0.47206732  0.73771447    -0.78440
O359        O  0.10201982  0.06183974  0.77685180    -0.87830
C360        C  0.05687393  0.47173606  0.89012666     1.12780
C361        C  0.09574966  0.08967183  0.76391995     1.07500
O362        O  0.43769731  0.42607902  0.90340939    -0.79370
O363        O  0.02109103  0.01265081  0.82096333    -1.33070
O364        O  0.40093351  0.39003040  0.85676723    -0.98590
C365        C  0.48252065  0.35151546  0.76464891     1.06220
Mn366      Mn  0.07954206  0.01727174  0.81956709     1.48570
O367        O  0.44769019  0.34408431  0.77758978    -0.87780
Mn368      Mn  0.37870504  0.41371059  0.81977214     1.49560
O369        O  0.38766808  0.49917998  0.86973375    -0.91660
C370        C  0.47517904  0.04407907  0.75167101     1.19410
C371        C  0.35852662  0.46454285  0.87971072     1.11470
Mn372      Mn  0.47837279  0.47040278  0.77851239     1.80970
O373        O  0.06062672  0.47174382  0.85512027    -0.96810
Mn374      Mn  0.43081301  0.02156727  0.82468728     1.49260
C375        C  0.35818463  0.46830690  0.76671470     1.07990
Mn376      Mn  0.03609293  0.42615780  0.81902651     1.49930
C377        C  0.48521092  0.35372521  0.87651293     1.10890
O378        O  0.40101127  0.38931612  0.78414224    -1.02610
O379        O  0.10391801  0.06147749  0.86389434    -0.92280
C380        C  0.40599882  0.39492111  0.74923034     1.22180
O381        O  0.05953677  0.47171708  0.78245486    -1.03000
O382        O  0.06864332  0.09452588  0.86479865    -0.90400
O383        O  0.01843747  0.38187752  0.86232486    -0.90010
O384        O  0.35200225  0.43198515  0.86295167    -0.90030
Mn385      Mn  0.02299206  0.06966642  0.82193403     1.47860
O386        O  0.02441253  0.46959323  0.90260973    -0.78510
C387        C  0.40539461  0.39546607  0.89188856     1.15230
O388        O  0.47634998  0.01323263  0.73987605    -0.77240
O389        O  0.47991312  0.01081248  0.90468833    -0.76850
Mn390      Mn  0.42737659  0.36960421  0.82087293     1.51060
O391        O  0.01596025  0.38142870  0.77628083    -0.89210
O392        O  0.47794736  0.04753539  0.85937715    -0.96730
O393        O  0.44988119  0.34672513  0.86497410    -0.91740
C394        C  0.47856817  0.04184315  0.89415688     1.13020
C395        C  0.45057899  0.08692561  0.90939689    -0.20520
C396        C  0.47487116  0.07008345  0.92147372    -0.07080
C397        C  0.49660801  0.08292301  0.95708269     0.13790
C398        C  0.49539630  0.11407785  0.97835945    -0.20570
C399        C  0.47207273  0.13181256  0.96540967    -0.07090
C400        C  0.44753891  0.11623983  0.93154426     0.13770
C401        C  0.41720161  0.12904043  0.91813736    -0.23920
H402        H  0.43327180  0.07683118  0.88238088     0.15060
H403        H  0.01405155  0.12575278  0.50446448     0.15090
C404        C  0.02272744  0.06558624  0.97166414    -0.23870
H405        H  0.38655841  0.10169970  0.91406497     0.05300
H406        H  0.42723975  0.14519575  0.88983874     0.08530
H407        H  0.41322866  0.14876986  0.93947137     0.08530
H408        H  0.04633151  0.07039013  0.94968568     0.08510
H409        H  0.50316416  0.03256514  0.97719307     0.08510
H410        H  0.03875376  0.08019691  0.49932650     0.05290
C411        C  0.52045664  0.31769934  0.90284361    -0.20520
C412        C  0.48854755  0.32691039  0.90646815    -0.07080
C413        C  0.46108762  0.31017373  0.93811848     0.13790
C414        C  0.46545715  0.28404015  0.96437407    -0.20570
C415        C  0.49605784  0.27333642  0.95950928    -0.07090
C416        C  0.52456313  0.29121110  0.92878398     0.13770
C417        C  0.55976897  0.28323204  0.92252255    -0.23920
H418        H  0.54200643  0.33058302  0.87897623     0.15060
H419        H  0.44354226  0.27026973  0.48783260     0.15090
C420        C  0.42751719  0.32013371  0.94481744    -0.23870
H421        H  0.58908182  0.31252978  0.92232560     0.05300
H422        H  0.55593043  0.26783959  0.89400693     0.08530
H423        H  0.06233950  0.26422194  0.94572482     0.08530
H424        H  0.40449197  0.30746569  0.92093635     0.08510
H425        H  0.44132965  0.35352128  0.94578051     0.08510
H426        H  0.41127174  0.30751731  0.47275396     0.05290
C427        C  0.00321414  0.08679373  0.69221564    -0.20520
C428        C  0.47706166  0.07582174  0.72471055    -0.07080
C429        C  0.45693438  0.09849662  0.73271307     0.13790
C430        C  0.46137308  0.12889445  0.70696720    -0.20570
C431        C  0.48819236  0.14082581  0.67524226    -0.07090
C432        C  0.00990267  0.11962311  0.66792746     0.13770
C433        C  0.04168668  0.13240125  0.63630497    -0.23920
H434        H  0.01996062  0.07073429  0.68678620     0.15060
H435        H  0.44368231  0.14405146  0.71205318     0.15090
C436        C  0.42944064  0.09122178  0.76728105    -0.23870
H437        H  0.06156320  0.11854888  0.64047055     0.05300
H438        H  0.06171999  0.16585455  0.63654753     0.08530
H439        H  0.02670095  0.12236259  0.60741122     0.08530
H440        H  0.44385946  0.08975839  0.79501845     0.08510
H441        H  0.39979385  0.06378152  0.76189002     0.08510
H442        H  0.42219366  0.11613899  0.77113258     0.05290
C443        C  0.02044130  0.29094095  0.70668312    -0.20520
C444        C  0.48979229  0.27221587  0.67804685    -0.07080
C445        C  0.45574611  0.27891565  0.67858097     0.13790
C446        C  0.45404797  0.30492982  0.70700232    -0.20570
C447        C  0.48503113  0.32386135  0.73536161    -0.07090
C448        C  0.01759723  0.31493140  0.73623182     0.13770
C449        C  0.04697329  0.32661755  0.77038527    -0.23920
H450        H  0.04568278  0.28460582  0.70731713     0.15060
H451        H  0.42785848  0.30971104  0.70762339     0.15090
C452        C  0.42004158  0.25715173  0.65086921    -0.23870
H453        H  0.06760211  0.31345864  0.76785892     0.05300
H454        H  0.02936085  0.31507487  0.79784532     0.08530
H455        H  0.06680214  0.35989832  0.77246264     0.08530
H456        H  0.40731573  0.22381646  0.65328795     0.08510
H457        H  0.42998202  0.26697334  0.62051228     0.08510
H458        H  0.39494949  0.26385348  0.65733111     0.05290
C459        C  0.34327319  0.99697816  0.93571882    -0.20520
C460        C  0.33067569  0.46254750  0.91179382    -0.07080
C461        C  0.29097938  0.42844606  0.91776261     0.13790
C462        C  0.26521232  0.43032530  0.94621120    -0.20570
C463        C  0.27727039  0.46541970  0.96838503    -0.07090
C464        C  0.31694352  0.99905782  0.96346400     0.13770
C465        C  0.33076065  0.03802514  0.98578986    -0.23920
H466        H  0.37344742  0.02309765  0.93189423     0.15060
H467        H  0.23446151  0.40488750  0.94994417     0.15090
C468        C  0.27426428  0.39045550  0.89347471    -0.23870
H469        H  0.36230884  0.06164057  0.97765145     0.05300
H470        H  0.33084601  0.03238451  0.01752044     0.08530
H471        H  0.30970722  0.05015563  0.97964942     0.08530
H472        H  0.29383026  0.37654393  0.89774302     0.08510
H473        H  0.27354905  0.39775797  0.86222772     0.08510
H474        H  0.24255012  0.36751397  0.90196277     0.05290
C475        C  0.08069546  0.46058636  0.95446842    -0.20520
C476        C  0.09013444  0.47466095  0.91597668    -0.07080
C477        C  0.13106153  0.48995365  0.90255814     0.13790
C478        C  0.16144994  0.49440257  0.92895533    -0.20570
C479        C  0.15198066  0.47868047  0.96682215    -0.07090
C480        C  0.11057596  0.46063747  0.97954277     0.13770
C481        C  0.09664571  0.43893455  0.51808380    -0.23920
H482        H  0.04926494  0.44757347  0.96439025     0.15060
H483        H  0.19297544  0.00853237  0.91910568     0.15090
C484        C  0.14364460  0.49989664  0.86033931    -0.23870
H485        H  0.06262456  0.42137195  0.51998113     0.05300
H486        H  0.10739244  0.46099120  0.54246332     0.08530
H487        H  0.10814153  0.41712996  0.52171456     0.08530
H488        H  0.13887504  0.02475135  0.84981101     0.08510
H489        H  0.12609472  0.47244480  0.84194278     0.08510
H490        H  0.17666680  0.00996971  0.85594287     0.05290
C491        C  0.29883879  0.46320143  0.67390228    -0.20520
C492        C  0.28387525  0.48951776  0.68378669    -0.07080
C493        C  0.29586750  0.51049433  0.71980771     0.13790
C494        C  0.31833432  0.50116032  0.74646206    -0.20570
C495        C  0.33186590  0.47351154  0.73739428    -0.07090
C496        C  0.32334242  0.45561881  0.69993688     0.13770
C497        C  0.33974302  0.42854948  0.68722201    -0.23920
H498        H  0.29001898  0.44721662  0.64625299     0.15060
H499        H  0.32593627  0.51628240  0.77459503     0.15090
C500        C  0.28652863  0.54364941  0.73079078    -0.23870
H501        H  0.33243681  0.41926853  0.65618869     0.05300
H502        H  0.32503423  0.40088818  0.70510323     0.08530
H503        H  0.37361308  0.44425920  0.69098855     0.08530
H504        H  0.26587671  0.53404039  0.75645166     0.08510
H505        H  0.27216973  0.05179020  0.70666705     0.08510
H506        H  0.31556591  0.57161035  0.73848311     0.05290
C507        C  0.09740685  0.44382937  0.72992461    -0.20520
C508        C  0.07991733  0.46777474  0.71932552    -0.07080
C509        C  0.09110577  0.48906789  0.68360403     0.13790
C510        C  0.12278498  0.48920604  0.66167263    -0.20570
C511        C  0.14166579  0.46675408  0.67364132    -0.07090
C512        C  0.12617893  0.44109314  0.70641109     0.13770
C513        C  0.13860874  0.40995364  0.71698921    -0.23920
H514        H  0.08873775  0.42713022  0.75700456     0.15060
H515        H  0.13405169  0.50831172  0.63605095     0.15090
C516        C  0.07201388  0.51383970  0.66990950    -0.23870
H517        H  0.11088110  0.37946361  0.71784405     0.05300
H518        H  0.15373474  0.41707602  0.74607446     0.08530
H519        H  0.15933532  0.40783700  0.69535894     0.08530
H520        H  0.07653386  0.03694812  0.69216750     0.08510
H521        H  0.03865521  0.49363113  0.66475681     0.08510
H522        H  0.08582751  0.52993649  0.64221375     0.05290
C523        C  0.33590082  0.33654164  0.90057631    -0.20520
C524        C  0.37226056  0.36640286  0.91833123    -0.07080
C525        C  0.37451640  0.36755980  0.95960847     0.13790
C526        C  0.34323375  0.33543432  0.98109698    -0.20570
C527        C  0.30709980  0.30493780  0.96300552    -0.07090
C528        C  0.30238025  0.30848611  0.92228376     0.13770
C529        C  0.26195079  0.28581188  0.90066991    -0.23920
H530        H  0.33216637  0.33664978  0.86920670     0.15060
H531        H  0.34743675  0.33440937  0.51221516     0.15090
C532        C  0.40888548  0.40251589  0.98140262    -0.23870
H533        H  0.25724931  0.30690470  0.88167786     0.05300
H534        H  0.23534463  0.27244946  0.92059123     0.08530
H535        H  0.26198068  0.26205955  0.88172125     0.08530
H536        H  0.40907808  0.43112428  0.97379382     0.08510
H537        H  0.43907627  0.40565605  0.97410773     0.08510
H538        H  0.40497768  0.39848886  0.51347378     0.05290
C539        C  0.16433602  0.18300410  0.93891281    -0.20520
C540        C  0.18499322  0.16904899  0.96310444    -0.07080
C541        C  0.17485112  0.12794173  0.96108549     0.13790
C542        C  0.14526506  0.10214284  0.93366593    -0.20570
C543        C  0.12553202  0.11653558  0.90827478    -0.07090
C544        C  0.13507059  0.15766277  0.91146288     0.13770
C545        C  0.11630946  0.17606293  0.88501050    -0.23920
H546        H  0.17194236  0.21452347  0.94102959     0.15060
H547        H  0.13796422  0.07070667  0.93167956     0.15090
C548        C  0.19597861  0.11167231  0.48691360    -0.23870
H549        H  0.12944920  0.20913768  0.89032905     0.05300
H550        H  0.08277259  0.16151096  0.89021733     0.08530
H551        H  0.12224052  0.17212342  0.85405795     0.08530
H552        H  0.18988036  0.11492515  0.51796243     0.08510
H553        H  0.22958757  0.12881367  0.48174145     0.08510
H554        H  0.18492102  0.07899271  0.48114271     0.05290
C555        C  0.35077659  0.32311571  0.66386963    -0.20520
C556        C  0.30992215  0.30347711  0.67746719    -0.07080
C557        C  0.30142284  0.31685044  0.71308955     0.13790
C558        C  0.33392569  0.34478655  0.73612524    -0.20570
C559        C  0.37444503  0.36482823  0.72250687    -0.07090
C560        C  0.38283570  0.35495796  0.68520499     0.13770
C561        C  0.42524832  0.37751689  0.66801472    -0.23920
H562        H  0.35771079  0.31382359  0.63638499     0.15060
H563        H  0.32705536  0.35317408  0.76417634     0.15090
C564        C  0.25840993  0.30550753  0.72563741    -0.23870
H565        H  0.42687250  0.36437910  0.63957149     0.05300
H566        H  0.44801990  0.37651816  0.68808606     0.08530
H567        H  0.43377657  0.40972047  0.66313537     0.08530
H568        H  0.24338016  0.27584181  0.74079159     0.08510
H569        H  0.23980290  0.30489951  0.70008408     0.08510
H570        H  0.25877813  0.32822617  0.74638240     0.05290
C571        C  0.18424844  0.14302141  0.69098308    -0.20520
C572        C  0.17791665  0.17436969  0.67775631    -0.07080
C573        C  0.14396624  0.17714140  0.69140133     0.13790
C574        C  0.11668717  0.14800880  0.71787023    -0.20570
C575        C  0.12357371  0.11708060  0.73265022    -0.07090
C576        C  0.15830005  0.11481518  0.71866947     0.13770
C577        C  0.17023145  0.08450245  0.73359816    -0.23920
H578        H  0.21109513  0.14194786  0.68089742     0.15060
H579        H  0.09076085  0.15055916  0.72819050     0.15090
C580        C  0.13782535  0.21208942  0.67952815    -0.23870
H581        H  0.19818725  0.08779560  0.71912702     0.05300
H582        H  0.14533754  0.05314268  0.72790508     0.08530
H583        H  0.17697879  0.08908142  0.76532492     0.08530
H584        H  0.13483932  0.21246547  0.64734495     0.08510
H585        H  0.16462166  0.24115993  0.68909472     0.08510
H586        H  0.10981784  0.20991053  0.69281460     0.05290
C587        C  0.21076883  0.70722024  0.15462226     0.02920
C588        C  0.20739807  0.70993852  0.11418000    -0.13230
C589        C  0.24017363  0.74057004  0.09242033     0.00420
C590        C  0.27405184  0.77119194  0.11357259    -0.11760
C591        C  0.27641820  0.76969554  0.15446947     0.02910
C592        C  0.24619749  0.73559735  0.17392043    -0.11180
H593        H  0.17940124  0.68742090  0.10037305     0.08500
H594        H  0.29916809  0.79612835  0.09877145     0.06030
H595        H  0.24959553  0.73143459  0.20464703     0.05880
C596        C  0.21885335  0.69988836  0.48756462     0.02920
C597        C  0.25264453  0.73111002  0.46872933    -0.13230
C598        C  0.27591661  0.76934865  0.48639044     0.00420
C599        C  0.26918162  0.77294528  0.02629703    -0.11760
C600        C  0.24071199  0.73897811  0.04835125     0.02910
C601        C  0.21395743  0.70302088  0.02760759    -0.11180
H602        H  0.25835580  0.72612341  0.43894168     0.08500
H603        H  0.28580333  0.80243292  0.03981410     0.06030
H604        H  0.18894492  0.67727591  0.04165401     0.05880
C605        C  0.25103664  0.98923522  0.15906832     0.02920
C606        C  0.25388934  0.99119876  0.11817864    -0.13230
C607        C  0.21955955  0.98359298  0.09494682     0.00420
C608        C  0.18250330  0.97418037  0.11373730    -0.11760
C609        C  0.17997661  0.97407638  0.15427612     0.02910
C610        C  0.21436108  0.98182952  0.17666051    -0.11180
H611        H  0.28279147  0.99823029  0.10496578     0.08500
H612        H  0.15477926  0.96563201  0.09719618     0.06030
H613        H  0.21202517  0.98064031  0.20814280     0.05880
C614        C  0.24557651  0.96876191  0.49100286     0.02920
C615        C  0.24830118  0.97385431  0.03153290    -0.13230
C616        C  0.22060403  0.98249154  0.05142008     0.00420
C617        C  0.19179929  0.98788996  0.02927111    -0.11760
C618        C  0.18544354  0.97765118  0.48968877     0.02910
C619        C  0.21266778  0.96792014  0.47088924    -0.11180
H620        H  0.27161773  0.97043084  0.04697172     0.08500
H621        H  0.17426681  0.00011760  0.04276402     0.06030
H622        H  0.20922362  0.96087248  0.44001143     0.05880
C623        C  0.99084340  0.74010973  0.15363407     0.02920
C624        C  0.98777259  0.73910621  0.11269874    -0.13230
C625        C  0.98756653  0.70713488  0.09089339     0.00420
C626        C  0.98977930  0.67592983  0.11186663    -0.11760
C627        C  0.99297099  0.67666471  0.15254632     0.02910
C628        C  0.99477090  0.70959133  0.17278252    -0.11180
H629        H  0.98551685  0.76331186  0.09847937     0.08500
H630        H  0.98803242  0.65013519  0.09726489     0.06030
H631        H  0.49731047  0.71049762  0.20431549     0.05880
C632        C  0.49328546  0.73926546  0.48331364     0.02920
C633        C  0.49349169  0.74055395  0.02434217    -0.13230
C634        C  0.48505507  0.70582378  0.04679570     0.00420
C635        C  0.47501372  0.66958431  0.02633083    -0.11760
C636        C  0.47718489  0.66873972  0.48566585     0.03030
C637        C  0.48659077  0.70378240  0.46442843    -0.11180
H638        H  0.50070554  0.76901157  0.03796990     0.08500
H639        H  0.46506993  0.64118110  0.04118459     0.06030
H640        H  0.48784957  0.70323375  0.43288560     0.05880
O641        O  0.38431673  0.00036262  0.28376758    -0.88390
C642        C  0.09744834  0.58903553  0.37734418     1.11650
O643        O  0.43589133  0.96856659  0.32187707    -1.36200
O644        O  0.06732185  0.59551899  0.27728523    -0.89870
O645        O  0.35333912  0.93342012  0.27503375    -0.90540
O646        O  0.43623664  0.92750246  0.23817292    -0.79360
O647        O  0.47549172  0.54899747  0.28671658    -1.01450
C648        C  0.05232943  0.97123307  0.24771862     1.21690
O649        O  0.48058625  0.92784490  0.32002494    -1.36340
Mn650      Mn  0.48000361  0.96911405  0.36360861     1.82050
O651        O  0.02063010  0.97206732  0.23771447    -0.78440
O652        O  0.10201982  0.56183974  0.27685180    -0.87830
C653        C  0.05687393  0.97173606  0.39012666     1.12780
C654        C  0.09574966  0.58967184  0.26391995     1.07500
O655        O  0.43769731  0.92607902  0.40340939    -0.79370
O656        O  0.02109103  0.51265081  0.32096333    -1.33070
O657        O  0.40093351  0.89003040  0.35676722    -0.98590
C658        C  0.48252065  0.85151547  0.26464890     1.06220
Mn659      Mn  0.07954207  0.51727174  0.31956709     1.48570
O660        O  0.44769019  0.84408432  0.27758978    -0.87780
Mn661      Mn  0.37870505  0.91371059  0.31977214     1.49560
O662        O  0.38766809  0.99917999  0.36973375    -0.91660
C663        C  0.47517904  0.54407907  0.25167101     1.19410
C664        C  0.35852663  0.96454286  0.37971072     1.11470
Mn665      Mn  0.47837280  0.97040278  0.27851238     1.80970
O666        O  0.06062672  0.97174382  0.35512027    -0.96810
Mn667      Mn  0.43081301  0.52156727  0.32468728     1.49260
C668        C  0.35818464  0.96830691  0.26671470     1.07990
Mn669      Mn  0.03609293  0.92615781  0.31902651     1.49930
C670        C  0.48521092  0.85372521  0.37651292     1.10890
O671        O  0.40101127  0.88931613  0.28414224    -1.02610
O672        O  0.10391801  0.56147749  0.36389434    -0.92280
C673        C  0.40599883  0.89492111  0.24923033     1.22180
O674        O  0.05953677  0.97171708  0.28245486    -1.03000
O675        O  0.06864333  0.59452588  0.36479865    -0.90400
O676        O  0.01843747  0.88187752  0.36232486    -0.90010
O677        O  0.35200225  0.93198515  0.36295167    -0.90030
Mn678      Mn  0.02299206  0.56966642  0.32193403     1.47860
O679        O  0.02441254  0.96959323  0.40260973    -0.78510
C680        C  0.40539461  0.89546607  0.39188856     1.15230
O681        O  0.47634998  0.51323264  0.23987605    -0.77240
O682        O  0.47991312  0.51081248  0.40468833    -0.76850
Mn683      Mn  0.42737660  0.86960421  0.32087293     1.51060
O684        O  0.01596026  0.88142871  0.27628082    -0.89210
O685        O  0.47794736  0.54753539  0.35937716    -0.96730
O686        O  0.44988120  0.84672513  0.36497409    -0.91740
C687        C  0.47856817  0.54184316  0.39415688     1.13020
C688        C  0.45057899  0.58692561  0.40939689    -0.20520
C689        C  0.47487117  0.57008346  0.42147372    -0.07080
C690        C  0.49660801  0.58292302  0.45708269     0.13790
C691        C  0.49539630  0.61407785  0.47835945    -0.20570
C692        C  0.47207274  0.63181257  0.46540967    -0.07090
C693        C  0.44753891  0.61623984  0.43154425     0.13770
C694        C  0.41720163  0.62904045  0.41813735    -0.23920
H695        H  0.43327181  0.57683119  0.38238088     0.15060
H696        H  0.01405154  0.62575278  0.00446447     0.15090
C697        C  0.02272744  0.56558624  0.47166414    -0.23870
H698        H  0.38655842  0.60169971  0.41406495     0.05300
H699        H  0.42723976  0.64519576  0.38983874     0.08530
H700        H  0.41322867  0.64876988  0.43947136     0.08530
H701        H  0.04633151  0.57039013  0.44968568     0.08510
H702        H  0.50316416  0.53256514  0.47719307     0.08510
H703        H  0.03875376  0.58019691  0.99932650     0.05290
C704        C  0.52045665  0.81769935  0.40284361    -0.20520
C705        C  0.48854756  0.82691039  0.40646815    -0.07080
C706        C  0.46108761  0.81017373  0.43811848     0.13790
C707        C  0.46545715  0.78404015  0.46437407    -0.20570
C708        C  0.49605785  0.77333643  0.45950928    -0.07090
C709        C  0.52456313  0.79121111  0.42878399     0.13770
C710        C  0.55976898  0.78323206  0.42252256    -0.23920
H711        H  0.54200644  0.83058303  0.37897624     0.15060
H712        H  0.44354226  0.77026974  0.98783261     0.15090
C713        C  0.42751718  0.82013369  0.44481743    -0.23870
H714        H  0.58908183  0.81252980  0.42232562     0.05300
H715        H  0.55593046  0.76783961  0.39400694     0.08530
H716        H  0.06233953  0.76422198  0.44572486     0.08530
H717        H  0.40449196  0.80746567  0.42093633     0.08510
H718        H  0.44132963  0.85352126  0.44578050     0.08510
H719        H  0.41127176  0.80751734  0.97275398     0.05290
C720        C  0.00321414  0.58679373  0.19221564    -0.20520
C721        C  0.47706166  0.57582175  0.22471056    -0.07080
C722        C  0.45693439  0.59849663  0.23271308     0.13790
C723        C  0.46137309  0.62889446  0.20696721    -0.20570
C724        C  0.48819236  0.64082582  0.17524226    -0.07090
C725        C  0.00990267  0.61962311  0.16792746     0.13770
C726        C  0.04168667  0.63240125  0.13630497    -0.23920
H727        H  0.01996062  0.57073429  0.18678620     0.15060
H728        H  0.44368232  0.64405148  0.21205320     0.15090
C729        C  0.42944067  0.59122181  0.26728108    -0.23870
H730        H  0.06156319  0.61854888  0.14047054     0.05300
H731        H  0.06171999  0.66585455  0.13654753     0.08530
H732        H  0.02670095  0.62236259  0.10741122     0.08530
H733        H  0.44385952  0.58975844  0.29501847     0.08510
H734        H  0.39979389  0.56378154  0.26189007     0.08510
H735        H  0.42219369  0.61613902  0.27113260     0.05290
C736        C  0.02044130  0.79094096  0.20668311    -0.20520
C737        C  0.48979229  0.77221587  0.17804685    -0.07080
C738        C  0.45574611  0.77891566  0.17858096     0.13790
C739        C  0.45404797  0.80492983  0.20700232    -0.20570
C740        C  0.48503113  0.82386136  0.23536161    -0.07090
C741        C  0.01759724  0.81493142  0.23623181     0.13770
C742        C  0.04697331  0.82661757  0.27038526    -0.23920
H743        H  0.04568278  0.78460582  0.20731712     0.15060
H744        H  0.42785848  0.80971105  0.20762339     0.15090
C745        C  0.42004158  0.75715173  0.15086921    -0.23870
H746        H  0.06760213  0.81345866  0.26785891     0.05300
H747        H  0.02936087  0.81507489  0.29784530     0.08530
H748        H  0.06680215  0.85989834  0.27246262     0.08530
H749        H  0.40731573  0.72381646  0.15328796     0.08510
H750        H  0.42998202  0.76697334  0.12051227     0.08510
H751        H  0.39494949  0.76385348  0.15733111     0.05290
C752        C  0.34327319  0.49697817  0.43571882    -0.20520
C753        C  0.33067569  0.96254750  0.41179382    -0.07080
C754        C  0.29097938  0.92844607  0.41776261     0.13790
C755        C  0.26521232  0.93032530  0.44621121    -0.20570
C756        C  0.27727039  0.96541970  0.46838504    -0.07090
C757        C  0.31694352  0.49905784  0.46346400     0.13770
C758        C  0.33076065  0.53802516  0.48578984    -0.23920
H759        H  0.37344742  0.52309767  0.43189422     0.15060
H760        H  0.23446151  0.90488751  0.44994417     0.15090
C761        C  0.27426428  0.89045550  0.39347471    -0.23870
H762        H  0.36230884  0.56164059  0.47765143     0.05300
H763        H  0.33084601  0.53238454  0.51752042     0.08530
H764        H  0.30970721  0.55015565  0.47964940     0.08530
H765        H  0.29383027  0.87654393  0.39774302     0.08510
H766        H  0.27354905  0.89775797  0.36222772     0.08510
H767        H  0.24255012  0.86751397  0.40196278     0.05290
C768        C  0.08069547  0.96058636  0.45446842    -0.20520
C769        C  0.09013445  0.97466096  0.41597668    -0.07080
C770        C  0.13106153  0.98995366  0.40255814     0.13790
C771        C  0.16144995  0.99440257  0.42895533    -0.20570
C772        C  0.15198066  0.97868048  0.46682215    -0.07090
C773        C  0.11057596  0.96063747  0.47954277     0.13770
C774        C  0.09664570  0.93893453  0.01808379    -0.23920
H775        H  0.04926494  0.94757347  0.46439025     0.15060
H776        H  0.19297545  0.50853238  0.41910568     0.15090
C777        C  0.14364460  0.99989664  0.36033931    -0.23870
H778        H  0.06262455  0.92137194  0.01998113     0.05300
H779        H  0.10739244  0.96099119  0.04246332     0.08530
H780        H  0.10814152  0.91712994  0.02171455     0.08530
H781        H  0.13887504  0.52475135  0.34981100     0.08510
H782        H  0.12609472  0.97244480  0.34194278     0.08510
H783        H  0.17666681  0.50996971  0.35594287     0.05290
C784        C  0.29883877  0.96320142  0.17390229    -0.20520
C785        C  0.28387528  0.98951779  0.18378668    -0.07080
C786        C  0.29586756  0.01049439  0.21980768     0.13790
C787        C  0.31833437  0.00116037  0.24646204    -0.20570
C788        C  0.33186591  0.97351156  0.23739428    -0.07090
C789        C  0.32334239  0.95561878  0.19993689     0.13770
C790        C  0.33974293  0.92854940  0.18722205    -0.23920
H791        H  0.29001894  0.94721658  0.14625301     0.15060
H792        H  0.32593635  0.01628247  0.27459499     0.15090
C793        C  0.28652872  0.04364949  0.23079073    -0.23870
H794        H  0.33243669  0.91926842  0.15618874     0.05300
H795        H  0.32503411  0.90088811  0.20510330     0.08530
H796        H  0.37361299  0.94425908  0.19098857     0.08530
H797        H  0.26587682  0.03404051  0.25645162     0.08510
H798        H  0.27216977  0.55179023  0.20666702     0.08510
H799        H  0.31556602  0.07161043  0.23848303     0.05290
C800        C  0.09740688  0.94382940  0.22992462    -0.20520
C801        C  0.07991735  0.96777476  0.21932552    -0.07080
C802        C  0.09110578  0.98906791  0.18360403     0.13790
C803        C  0.12278499  0.98920606  0.16167264    -0.20570
C804        C  0.14166582  0.96675412  0.17364133    -0.07090
C805        C  0.12617896  0.94109318  0.20641111     0.13770
C806        C  0.13860880  0.90995369  0.21698923    -0.23920
H807        H  0.08873778  0.92713025  0.25700457     0.15060
H808        H  0.13405170  0.00831174  0.13605095     0.15090
C809        C  0.07201388  0.01383970  0.16990949    -0.23870
H810        H  0.11088117  0.87946366  0.21784408     0.05300
H811        H  0.15373480  0.91707610  0.24607448     0.08530
H812        H  0.15933539  0.90783706  0.19535897     0.08530
H813        H  0.07653385  0.53694811  0.19216749     0.08510
H814        H  0.03865520  0.99363112  0.16475680     0.08510
H815        H  0.08582751  0.02993649  0.14221374     0.05290
C816        C  0.33590082  0.83654164  0.40057631    -0.20520
C817        C  0.37226056  0.86640286  0.41833123    -0.07080
C818        C  0.37451641  0.86755980  0.45960846     0.13790
C819        C  0.34323375  0.83543432  0.48109698    -0.20570
C820        C  0.30709980  0.80493780  0.46300552    -0.07090
C821        C  0.30238026  0.80848612  0.42228376     0.13770
C822        C  0.26195079  0.78581188  0.40066991    -0.23920
H823        H  0.33216637  0.83664978  0.36920669     0.15060
H824        H  0.34743674  0.83440937  0.01221516     0.15090
C825        C  0.40888549  0.90251589  0.48140261    -0.23870
H826        H  0.25724931  0.80690470  0.38167787     0.05300
H827        H  0.23534464  0.77244946  0.42059123     0.08530
H828        H  0.26198068  0.76205955  0.38172125     0.08530
H829        H  0.40907809  0.93112428  0.47379382     0.08510
H830        H  0.43907627  0.90565605  0.47410773     0.08510
H831        H  0.40497767  0.89848887  0.01347378     0.05290
C832        C  0.16433602  0.68300410  0.43891282    -0.20520
C833        C  0.18499323  0.66904899  0.46310444    -0.07080
C834        C  0.17485113  0.62794173  0.46108549     0.13790
C835        C  0.14526507  0.60214284  0.43366593    -0.20570
C836        C  0.12553203  0.61653558  0.40827478    -0.07090
C837        C  0.13507060  0.65766277  0.41146289     0.13770
C838        C  0.11630946  0.67606294  0.38501051    -0.23920
H839        H  0.17194236  0.71452347  0.44102960     0.15060
H840        H  0.13796423  0.57070667  0.43167955     0.15090
C841        C  0.19597860  0.61167231  0.98691360    -0.23870
H842        H  0.12944920  0.70913768  0.39032906     0.05300
H843        H  0.08277259  0.66151095  0.39021734     0.08530
H844        H  0.12224052  0.67212342  0.35405796     0.08530
H845        H  0.18988034  0.61492516  0.01796244     0.08510
H846        H  0.22958756  0.62881368  0.98174146     0.08510
H847        H  0.18492100  0.57899272  0.98114272     0.05290
C848        C  0.35077659  0.82311572  0.16386962    -0.20520
C849        C  0.30992216  0.80347711  0.17746719    -0.07080
C850        C  0.30142284  0.81685043  0.21308956     0.13790
C851        C  0.33392570  0.84478654  0.23612525    -0.20570
C852        C  0.37444503  0.86482823  0.22250687    -0.07090
C853        C  0.38283570  0.85495797  0.18520498     0.13770
C854        C  0.42524832  0.87751690  0.16801471    -0.23920
H855        H  0.35771079  0.81382360  0.13638497     0.15060
H856        H  0.32705537  0.85317406  0.26417636     0.15090
C857        C  0.25840993  0.80550750  0.22563743    -0.23870
H858        H  0.42687250  0.86437912  0.13957147     0.05300
H859        H  0.44801990  0.87651817  0.18808604     0.08530
H860        H  0.43377657  0.90972049  0.16313536     0.08530
H861        H  0.24338020  0.77584181  0.24079167     0.08510
H862        H  0.23980288  0.80489943  0.20008410     0.08510
H863        H  0.25877813  0.82822617  0.24638238     0.05290
C864        C  0.18424844  0.64302141  0.19098307    -0.20520
C865        C  0.17791665  0.67436969  0.17775631    -0.07080
C866        C  0.14396624  0.67714140  0.19140132     0.13790
C867        C  0.11668717  0.64800880  0.21787022    -0.20570
C868        C  0.12357371  0.61708060  0.23265022    -0.07090
C869        C  0.15830005  0.61481519  0.21866946     0.13770
C870        C  0.17023145  0.58450246  0.23359816    -0.23920
H871        H  0.21109513  0.64194786  0.18089741     0.15060
H872        H  0.09076085  0.65055916  0.22819050     0.15090
C873        C  0.13782535  0.71208942  0.17952815    -0.23870
H874        H  0.19818725  0.58779560  0.21912701     0.05300
H875        H  0.14533754  0.55314268  0.22790508     0.08530
H876        H  0.17697879  0.58908142  0.26532491     0.08530
H877        H  0.13483931  0.71246547  0.14734495     0.08510
H878        H  0.16462165  0.74115994  0.18909472     0.08510
H879        H  0.10981783  0.70991053  0.19281460     0.05290
C880        C  0.21076883  0.70722024  0.65462226     0.02920
C881        C  0.20739807  0.70993851  0.61417999    -0.13230
C882        C  0.24017363  0.74057004  0.59242033     0.00420
C883        C  0.27405185  0.77119194  0.61357259    -0.11760
C884        C  0.27641820  0.76969554  0.65446947     0.02910
C885        C  0.24619749  0.73559735  0.67392043    -0.11180
H886        H  0.17940124  0.68742089  0.60037305     0.08500
H887        H  0.29916809  0.79612835  0.59877145     0.06030
H888        H  0.24959553  0.73143458  0.70464703     0.05880
C889        C  0.21885334  0.69988836  0.98756462     0.02920
C890        C  0.25264452  0.73111002  0.96872934    -0.13230
C891        C  0.27591660  0.76934865  0.98639044     0.00420
C892        C  0.26918163  0.77294528  0.52629703    -0.11760
C893        C  0.24071200  0.73897810  0.54835124     0.02910
C894        C  0.21395744  0.70302088  0.52760758    -0.11180
H895        H  0.25835579  0.72612341  0.93894168     0.08500
H896        H  0.28580334  0.80243292  0.53981410     0.06030
H897        H  0.18894492  0.67727591  0.54165401     0.05880
C898        C  0.25103661  0.98923519  0.65906832     0.02920
C899        C  0.25388933  0.99119875  0.61817864    -0.13230
C900        C  0.21955954  0.98359297  0.59494682     0.00420
C901        C  0.18250329  0.97418036  0.61373729    -0.11760
C902        C  0.17997658  0.97407634  0.65427611     0.02910
C903        C  0.21436104  0.98182947  0.67666051    -0.11180
H904        H  0.28279146  0.99823030  0.60496580     0.08500
H905        H  0.15477925  0.96563201  0.59719616     0.06030
H906        H  0.21202512  0.98064023  0.70814280     0.05880
C907        C  0.24557650  0.96876189  0.99100286     0.02920
C908        C  0.24830119  0.97385433  0.53153290    -0.13230
C909        C  0.22060403  0.98249156  0.55142008     0.00420
C910        C  0.19179930  0.98788998  0.52927111    -0.11760
C911        C  0.18544353  0.97765116  0.98968877     0.02910
C912        C  0.21266777  0.96792011  0.97088924    -0.11180
H913        H  0.27161773  0.97043085  0.54697173     0.08500
H914        H  0.17426682  0.00011762  0.54276402     0.06030
H915        H  0.20922360  0.96087246  0.94001143     0.05880
C916        C  0.99084340  0.74010973  0.65363408     0.02920
C917        C  0.98777260  0.73910621  0.61269874    -0.13230
C918        C  0.98756654  0.70713489  0.59089339     0.00420
C919        C  0.98977931  0.67592983  0.61186663    -0.11760
C920        C  0.99297100  0.67666471  0.65254632     0.02910
C921        C  0.99477091  0.70959133  0.67278252    -0.11180
H922        H  0.98551686  0.76331186  0.59847938     0.08500
H923        H  0.98803243  0.65013520  0.59726488     0.06030
H924        H  0.49731046  0.71049761  0.70431549     0.05880
C925        C  0.49328545  0.73926546  0.98331364     0.02920
C926        C  0.49349171  0.74055396  0.52434217    -0.13230
C927        C  0.48505508  0.70582378  0.54679569     0.00420
C928        C  0.47501373  0.66958431  0.52633083    -0.11760
C929        C  0.47718489  0.66873972  0.98566585     0.03030
C930        C  0.48659077  0.70378239  0.96442844    -0.11180
H931        H  0.50070556  0.76901158  0.53796990     0.08500
H932        H  0.46506993  0.64118110  0.54118459     0.06030
H933        H  0.48784956  0.70323374  0.93288560     0.05880
O934        O  0.38431672  0.00036262  0.78376758    -0.88390
C935        C  0.09744833  0.58903553  0.87734418     1.11650
O936        O  0.43589132  0.96856659  0.82187707    -1.36200
O937        O  0.06732185  0.59551899  0.77728523    -0.89870
O938        O  0.35333912  0.93342012  0.77503375    -0.90540
O939        O  0.43623663  0.92750246  0.73817292    -0.79360
O940        O  0.47549172  0.54899748  0.78671658    -1.01450
C941        C  0.05232942  0.97123307  0.74771862     1.21690
O942        O  0.48058624  0.92784489  0.82002494    -1.36340
Mn943      Mn  0.48000360  0.96911405  0.86360861     1.82050
O944        O  0.02063010  0.97206732  0.73771447    -0.78440
O945        O  0.10201982  0.56183974  0.77685180    -0.87830
C946        C  0.05687393  0.97173606  0.89012666     1.12780
C947        C  0.09574966  0.58967183  0.76391995     1.07500
O948        O  0.43769731  0.92607901  0.90340939    -0.79370
O949        O  0.02109103  0.51265081  0.82096333    -1.33070
O950        O  0.40093350  0.89003039  0.85676722    -0.98590
C951        C  0.48252065  0.85151546  0.76464890     1.06220
Mn952      Mn  0.07954206  0.51727174  0.81956709     1.48570
O953        O  0.44769019  0.84408431  0.77758978    -0.87780
Mn954      Mn  0.37870504  0.91371058  0.81977214     1.49560
O955        O  0.38766808  0.99917998  0.86973375    -0.91660
C956        C  0.47517904  0.54407907  0.75167101     1.19410
C957        C  0.35852662  0.96454285  0.87971072     1.11470
Mn958      Mn  0.47837279  0.97040277  0.77851238     1.80970
O959        O  0.06062671  0.97174382  0.85512027    -0.96810
Mn960      Mn  0.43081302  0.52156727  0.82468728     1.49260
C961        C  0.35818463  0.96830690  0.76671470     1.07990
Mn962      Mn  0.03609292  0.92615780  0.81902651     1.49930
C963        C  0.48521091  0.85372520  0.87651293     1.10890
O964        O  0.40101126  0.88931612  0.78414224    -1.02610
O965        O  0.10391801  0.56147749  0.86389434    -0.92280
C966        C  0.40599882  0.89492111  0.74923033     1.22180
O967        O  0.05953677  0.97171708  0.78245486    -1.03000
O968        O  0.06864332  0.59452588  0.86479865    -0.90400
O969        O  0.01843747  0.88187752  0.86232486    -0.90010
O970        O  0.35200224  0.93198515  0.86295166    -0.90030
Mn971      Mn  0.02299206  0.56966642  0.82193402     1.47860
O972        O  0.02441253  0.96959323  0.90260973    -0.78510
C973        C  0.40539461  0.89546606  0.89188856     1.15230
O974        O  0.47634999  0.51323264  0.73987605    -0.77240
O975        O  0.47991312  0.51081248  0.90468833    -0.76850
Mn976      Mn  0.42737659  0.86960420  0.82087293     1.51060
O977        O  0.01596025  0.88142870  0.77628083    -0.89210
O978        O  0.47794737  0.54753540  0.85937715    -0.96730
O979        O  0.44988119  0.84672512  0.86497409    -0.91740
C980        C  0.47856817  0.54184316  0.89415688     1.13020
C981        C  0.45057899  0.58692561  0.90939689    -0.20520
C982        C  0.47487117  0.57008346  0.92147372    -0.07080
C983        C  0.49660802  0.58292302  0.95708269     0.13790
C984        C  0.49539630  0.61407786  0.97835945    -0.20570
C985        C  0.47207274  0.63181257  0.96540967    -0.07090
C986        C  0.44753891  0.61623984  0.93154426     0.13770
C987        C  0.41720162  0.62904044  0.91813735    -0.23920
H988        H  0.43327181  0.57683119  0.88238088     0.15060
H989        H  0.01405157  0.62575278  0.50446447     0.15090
C990        C  0.02272744  0.56558624  0.97166414    -0.23870
H991        H  0.38655842  0.60169971  0.91406496     0.05300
H992        H  0.42723975  0.64519576  0.88983874     0.08530
H993        H  0.41322866  0.64876987  0.93947137     0.08530
H994        H  0.04633151  0.57039014  0.94968568     0.08510
H995        H  0.50316417  0.53256514  0.97719307     0.08510
H996        H  0.03875377  0.58019691  0.49932650     0.05290
C997        C  0.52045664  0.81769935  0.90284362    -0.20520
C998        C  0.48854754  0.82691039  0.90646815    -0.07080
C999        C  0.46108759  0.81017371  0.93811847     0.13790
C1000       C  0.46545713  0.78404013  0.96437406    -0.20570
C1001       C  0.49605784  0.77333642  0.95950928    -0.07090
C1002       C  0.52456313  0.79121112  0.92878400     0.13770
C1003       C  0.55976898  0.78323207  0.92252258    -0.23920
H1004       H  0.54200644  0.83058304  0.87897626     0.15060
H1005       H  0.44354229  0.77026976  0.48783262     0.15090
C1006       C  0.42751715  0.82013366  0.94481742    -0.23870
H1007       H  0.58908183  0.81252982  0.92232564     0.05300
H1008       H  0.55593047  0.76783962  0.89400696     0.08530
H1009       H  0.06233949  0.76422194  0.94572483     0.08530
H1010       H  0.40449194  0.80746564  0.92093631     0.08510
H1011       H  0.44132959  0.85352123  0.94578049     0.08510
H1012       H  0.41127180  0.80751738  0.47275400     0.05290
C1013       C  0.00321414  0.58679373  0.69221564    -0.20520
C1014       C  0.47706166  0.57582175  0.72471055    -0.07080
C1015       C  0.45693438  0.59849662  0.73271307     0.13790
C1016       C  0.46137309  0.62889445  0.70696720    -0.20570
C1017       C  0.48819236  0.64082581  0.67524225    -0.07090
C1018       C  0.00990267  0.61962311  0.66792746     0.13770
C1019       C  0.04168668  0.63240125  0.63630497    -0.23920
H1020       H  0.01996062  0.57073429  0.68678620     0.15060
H1021       H  0.44368232  0.64405146  0.71205318     0.15090
C1022       C  0.42944064  0.59122179  0.76728105    -0.23870
H1023       H  0.06156320  0.61854888  0.64047055     0.05300
H1024       H  0.06172000  0.66585455  0.63654754     0.08530
H1025       H  0.02670096  0.62236260  0.60741122     0.08530
H1026       H  0.44385947  0.58975840  0.79501845     0.08510
H1027       H  0.39979386  0.56378152  0.76189002     0.08510
H1028       H  0.42219366  0.61613899  0.77113257     0.05290
C1029       C  0.02044130  0.79094095  0.70668312    -0.20520
C1030       C  0.48979229  0.77221587  0.67804685    -0.07080
C1031       C  0.45574611  0.77891565  0.67858096     0.13790
C1032       C  0.45404797  0.80492982  0.70700232    -0.20570
C1033       C  0.48503112  0.82386135  0.73536161    -0.07090
C1034       C  0.01759724  0.81493140  0.73623182     0.13770
C1035       C  0.04697329  0.82661755  0.77038527    -0.23920
H1036       H  0.04568278  0.78460582  0.70731713     0.15060
H1037       H  0.42785847  0.80971104  0.70762339     0.15090
C1038       C  0.42004158  0.75715173  0.65086920    -0.23870
H1039       H  0.06760212  0.81345864  0.76785892     0.05300
H1040       H  0.02936085  0.81507487  0.79784532     0.08530
H1041       H  0.06680214  0.85989832  0.77246264     0.08530
H1042       H  0.40731573  0.72381646  0.65328795     0.08510
H1043       H  0.42998202  0.76697334  0.62051227     0.08510
H1044       H  0.39494949  0.76385348  0.65733110     0.05290
C1045       C  0.34327319  0.49697817  0.93571882    -0.20520
C1046       C  0.33067568  0.96254749  0.91179382    -0.07080
C1047       C  0.29097937  0.92844606  0.91776260     0.13790
C1048       C  0.26521231  0.93032529  0.94621120    -0.20570
C1049       C  0.27727038  0.96541969  0.96838503    -0.07090
C1050       C  0.31694353  0.49905783  0.96346401     0.13770
C1051       C  0.33076066  0.53802515  0.98578986    -0.23920
H1052       H  0.37344743  0.52309766  0.93189423     0.15060
H1053       H  0.23446150  0.90488749  0.94994416     0.15090
C1054       C  0.27426427  0.89045550  0.89347470    -0.23870
H1055       H  0.36230885  0.56164057  0.97765145     0.05300
H1056       H  0.33084602  0.53238452  0.01752044     0.08530
H1057       H  0.30970723  0.55015565  0.97964942     0.08530
H1058       H  0.29383026  0.87654392  0.89774301     0.08510
H1059       H  0.27354904  0.89775797  0.86222771     0.08510
H1060       H  0.24255011  0.86751397  0.90196276     0.05290
C1061       C  0.08069546  0.96058635  0.95446842    -0.20520
C1062       C  0.09013444  0.97466095  0.91597668    -0.07080
C1063       C  0.13106152  0.98995365  0.90255814     0.13790
C1064       C  0.16144994  0.99440256  0.92895534    -0.20570
C1065       C  0.15198065  0.97868046  0.96682215    -0.07090
C1066       C  0.11057595  0.96063745  0.97954277     0.13770
C1067       C  0.09664572  0.93893456  0.51808380    -0.23920
H1068       H  0.04926493  0.94757346  0.96439025     0.15060
H1069       H  0.19297544  0.50853238  0.91910568     0.15090
C1070       C  0.14364460  0.99989664  0.86033932    -0.23870
H1071       H  0.06262457  0.92137196  0.51998113     0.05300
H1072       H  0.10739245  0.96099121  0.54246332     0.08530
H1073       H  0.10814154  0.91712997  0.52171456     0.08530
H1074       H  0.13887504  0.52475135  0.84981100     0.08510
H1075       H  0.12609472  0.97244480  0.84194278     0.08510
H1076       H  0.17666680  0.50996971  0.85594286     0.05290
C1077       C  0.29883880  0.96320144  0.67390228    -0.20520
C1078       C  0.28387525  0.98951776  0.68378669    -0.07080
C1079       C  0.29586750  0.01049433  0.71980771     0.13790
C1080       C  0.31833431  0.00116031  0.74646207    -0.20570
C1081       C  0.33186590  0.97351154  0.73739428    -0.07090
C1082       C  0.32334243  0.95561882  0.69993688     0.13770
C1083       C  0.33974304  0.92854950  0.68722200    -0.23920
H1084       H  0.29001899  0.94721663  0.64625299     0.15060
H1085       H  0.32593626  0.01628239  0.77459503     0.15090
C1086       C  0.28652862  0.04364941  0.73079078    -0.23870
H1087       H  0.33243683  0.91926855  0.65618868     0.05300
H1088       H  0.32503425  0.90088819  0.70510322     0.08530
H1089       H  0.37361310  0.94425922  0.69098854     0.08530
H1090       H  0.26587670  0.03404038  0.75645166     0.08510
H1091       H  0.27216973  0.55179020  0.70666704     0.08510
H1092       H  0.31556590  0.07161034  0.73848312     0.05290
C1093       C  0.09740685  0.94382937  0.72992461    -0.20520
C1094       C  0.07991733  0.96777474  0.71932552    -0.07080
C1095       C  0.09110578  0.98906790  0.68360403     0.13790
C1096       C  0.12278498  0.98920605  0.66167263    -0.20570
C1097       C  0.14166579  0.96675409  0.67364131    -0.07090
C1098       C  0.12617892  0.94109314  0.70641109     0.13770
C1099       C  0.13860874  0.90995363  0.71698920    -0.23920
H1100       H  0.08873775  0.92713021  0.75700455     0.15060
H1101       H  0.13405169  0.00831173  0.63605095     0.15090
C1102       C  0.07201389  0.01383971  0.66990950    -0.23870
H1103       H  0.11088110  0.87946360  0.71784403     0.05300
H1104       H  0.15373473  0.91707601  0.74607445     0.08530
H1105       H  0.15933531  0.90783699  0.69535893     0.08530
H1106       H  0.07653386  0.53694811  0.69216749     0.08510
H1107       H  0.03865521  0.99363115  0.66475681     0.08510
H1108       H  0.08582752  0.02993651  0.64221375     0.05290
C1109       C  0.33590081  0.83654164  0.90057631    -0.20520
C1110       C  0.37226055  0.86640285  0.91833123    -0.07080
C1111       C  0.37451640  0.86755980  0.95960846     0.13790
C1112       C  0.34323375  0.83543432  0.98109698    -0.20570
C1113       C  0.30709980  0.80493779  0.96300552    -0.07090
C1114       C  0.30238025  0.80848611  0.92228376     0.13770
C1115       C  0.26195078  0.78581187  0.90066991    -0.23920
H1116       H  0.33216637  0.83664978  0.86920670     0.15060
H1117       H  0.34743675  0.83440938  0.51221516     0.15090
C1118       C  0.40888549  0.90251588  0.98140261    -0.23870
H1119       H  0.25724930  0.80690469  0.88167786     0.05300
H1120       H  0.23534463  0.77244946  0.92059123     0.08530
H1121       H  0.26198068  0.76205954  0.88172125     0.08530
H1122       H  0.40907809  0.93112428  0.97379382     0.08510
H1123       H  0.43907627  0.90565603  0.97410772     0.08510
H1124       H  0.40497767  0.89848888  0.51347378     0.05290
C1125       C  0.16433602  0.68300410  0.93891282    -0.20520
C1126       C  0.18499322  0.66904899  0.96310445    -0.07080
C1127       C  0.17485112  0.62794173  0.96108549     0.13790
C1128       C  0.14526506  0.60214284  0.93366593    -0.20570
C1129       C  0.12553202  0.61653558  0.90827478    -0.07090
C1130       C  0.13507059  0.65766278  0.91146288     0.13770
C1131       C  0.11630946  0.67606294  0.88501050    -0.23920
H1132       H  0.17194236  0.71452347  0.94102959     0.15060
H1133       H  0.13796421  0.57070667  0.93167956     0.15090
C1134       C  0.19597861  0.61167231  0.48691359    -0.23870
H1135       H  0.12944920  0.70913768  0.89032905     0.05300
H1136       H  0.08277259  0.66151096  0.89021733     0.08530
H1137       H  0.12224053  0.67212342  0.85405795     0.08530
H1138       H  0.18988036  0.61492516  0.51796243     0.08510
H1139       H  0.22958757  0.62881368  0.48174144     0.08510
H1140       H  0.18492102  0.57899272  0.48114270     0.05290
C1141       C  0.35077659  0.82311571  0.66386963    -0.20520
C1142       C  0.30992215  0.80347711  0.67746719    -0.07080
C1143       C  0.30142283  0.81685045  0.71308954     0.13790
C1144       C  0.33392569  0.84478656  0.73612524    -0.20570
C1145       C  0.37444503  0.86482823  0.72250686    -0.07090
C1146       C  0.38283570  0.85495796  0.68520499     0.13770
C1147       C  0.42524832  0.87751689  0.66801472    -0.23920
H1148       H  0.35771079  0.81382358  0.63638498     0.15060
H1149       H  0.32705536  0.85317409  0.76417634     0.15090
C1150       C  0.25840992  0.80550753  0.72563740    -0.23870
H1151       H  0.42687250  0.86437909  0.63957149     0.05300
H1152       H  0.44801990  0.87651816  0.68808606     0.08530
H1153       H  0.43377657  0.90972047  0.66313536     0.08530
H1154       H  0.24338014  0.77584181  0.74079157     0.08510
H1155       H  0.23980291  0.80489954  0.70008407     0.08510
H1156       H  0.25877812  0.82822616  0.74638240     0.05290
C1157       C  0.18424844  0.64302141  0.69098307    -0.20520
C1158       C  0.17791665  0.67436969  0.67775631    -0.07080
C1159       C  0.14396624  0.67714140  0.69140133     0.13790
C1160       C  0.11668717  0.64800881  0.71787023    -0.20570
C1161       C  0.12357371  0.61708060  0.73265022    -0.07090
C1162       C  0.15830004  0.61481518  0.71866946     0.13770
C1163       C  0.17023145  0.58450245  0.73359815    -0.23920
H1164       H  0.21109512  0.64194786  0.68089740     0.15060
H1165       H  0.09076086  0.65055916  0.72819050     0.15090
C1166       C  0.13782536  0.71208943  0.67952815    -0.23870
H1167       H  0.19818725  0.58779559  0.71912700     0.05300
H1168       H  0.14533753  0.55314268  0.72790507     0.08530
H1169       H  0.17697879  0.58908141  0.76532491     0.08530
H1170       H  0.13483932  0.71246548  0.64734496     0.08510
H1171       H  0.16462166  0.74115994  0.68909473     0.08510
H1172       H  0.10981785  0.70991054  0.69281461     0.05290
C1173       C  0.71076882  0.20722025  0.15462226     0.02920
C1174       C  0.70739807  0.20993852  0.11418000    -0.13230
C1175       C  0.74017362  0.24057005  0.09242033     0.00420
C1176       C  0.77405184  0.27119195  0.11357259    -0.11760
C1177       C  0.77641820  0.26969555  0.15446947     0.02910
C1178       C  0.74619749  0.23559736  0.17392043    -0.11180
H1179       H  0.67940123  0.18742090  0.10037305     0.08500
H1180       H  0.79916808  0.29612835  0.09877145     0.06030
H1181       H  0.74959553  0.23143459  0.20464703     0.05880
C1182       C  0.71885335  0.19988835  0.48756462     0.02920
C1183       C  0.75264453  0.23111001  0.46872934    -0.13230
C1184       C  0.77591661  0.26934864  0.48639044     0.00420
C1185       C  0.76918162  0.27294528  0.02629703    -0.11760
C1186       C  0.74071199  0.23897811  0.04835124     0.02910
C1187       C  0.71395743  0.20302088  0.02760759    -0.11180
H1188       H  0.75835580  0.22612340  0.43894168     0.08500
H1189       H  0.78580334  0.30243292  0.03981410     0.06030
H1190       H  0.68894491  0.17727591  0.04165401     0.05880
C1191       C  0.75103662  0.48923519  0.15906832     0.02920
C1192       C  0.75388933  0.49119876  0.11817865    -0.13230
C1193       C  0.71955955  0.48359297  0.09494683     0.00420
C1194       C  0.68250329  0.47418036  0.11373729    -0.11760
C1195       C  0.67997659  0.47407635  0.15427611     0.02910
C1196       C  0.71436105  0.48182948  0.17666052    -0.11180
H1197       H  0.78279146  0.49823030  0.10496580     0.08500
H1198       H  0.65477925  0.46563201  0.09719617     0.06030
H1199       H  0.71202513  0.48064024  0.20814280     0.05880
C1200       C  0.74557651  0.46876190  0.49100286     0.02920
C1201       C  0.74830119  0.47385433  0.03153291    -0.13230
C1202       C  0.72060403  0.48249156  0.05142008     0.00420
C1203       C  0.69179930  0.48788998  0.02927111    -0.11760
C1204       C  0.68544354  0.47765117  0.48968877     0.02910
C1205       C  0.71266777  0.46792013  0.47088924    -0.11180
H1206       H  0.77161773  0.47043086  0.04697173     0.08500
H1207       H  0.67426682  0.50011762  0.04276402     0.06030
H1208       H  0.70922361  0.46087247  0.44001143     0.05880
C1209       C  0.49084342  0.24010974  0.15363407     0.02920
C1210       C  0.48777260  0.23910622  0.11269874    -0.13230
C1211       C  0.48756655  0.20713489  0.09089339     0.00420
C1212       C  0.48977932  0.17592984  0.11186663    -0.11760
C1213       C  0.49297101  0.17666472  0.15254632     0.02910
C1214       C  0.49477093  0.20959134  0.17278252    -0.11180
H1215       H  0.48551686  0.26331186  0.09847937     0.08500
H1216       H  0.48803244  0.15013520  0.09726489     0.06030
H1217       H  0.99731048  0.21049762  0.20431549     0.05880
C1218       C  0.99328545  0.23926546  0.48331364     0.02920
C1219       C  0.99349170  0.24055395  0.02434217    -0.13230
C1220       C  0.98505507  0.20582378  0.04679569     0.00420
C1221       C  0.97501373  0.16958431  0.02633083    -0.11760
C1222       C  0.97718489  0.16873972  0.48566585     0.03030
C1223       C  0.98659077  0.20378240  0.46442844    -0.11180
H1224       H  0.00070555  0.26901157  0.03796990     0.08500
H1225       H  0.96506993  0.14118110  0.04118459     0.06030
H1226       H  0.98784957  0.20323375  0.43288560     0.05880
O1227       O  0.88431673  0.50036262  0.28376758    -0.88390
C1228       C  0.59744834  0.08903553  0.37734419     1.11650
O1229       O  0.93589133  0.46856659  0.32187707    -1.36200
O1230       O  0.56732185  0.09551900  0.27728523    -0.89870
O1231       O  0.85333912  0.43342012  0.27503376    -0.90540
O1232       O  0.93623663  0.42750246  0.23817292    -0.79360
O1233       O  0.97549173  0.04899748  0.28671658    -1.01450
C1234       C  0.55232942  0.47123307  0.24771862     1.21690
O1235       O  0.98058625  0.42784490  0.32002494    -1.36340
Mn1236     Mn  0.98000360  0.46911405  0.36360861     1.82050
O1237       O  0.52063010  0.47206732  0.23771447    -0.78440
O1238       O  0.60201982  0.06183975  0.27685180    -0.87830
C1239       C  0.55687393  0.47173606  0.39012666     1.12780
C1240       C  0.59574966  0.08967184  0.26391995     1.07500
O1241       O  0.93769731  0.42607902  0.40340939    -0.79370
O1242       O  0.52109104  0.01265082  0.32096333    -1.33070
O1243       O  0.90093351  0.39003040  0.35676722    -0.98590
C1244       C  0.98252065  0.35151546  0.26464890     1.06220
Mn1245     Mn  0.57954207  0.01727175  0.31956709     1.48570
O1246       O  0.94769019  0.34408432  0.27758978    -0.87780
Mn1247     Mn  0.87870504  0.41371059  0.31977214     1.49560
O1248       O  0.88766809  0.49917999  0.36973375    -0.91660
C1249       C  0.97517905  0.04407908  0.25167101     1.19410
C1250       C  0.85852663  0.46454286  0.37971072     1.11470
Mn1251     Mn  0.97837279  0.47040278  0.27851239     1.80970
O1252       O  0.56062672  0.47174382  0.35512027    -0.96810
Mn1253     Mn  0.93081302  0.02156727  0.32468728     1.49260
C1254       C  0.85818464  0.46830690  0.26671470     1.07990
Mn1255     Mn  0.53609293  0.42615780  0.31902651     1.49930
C1256       C  0.98521092  0.35372521  0.37651293     1.10890
O1257       O  0.90101126  0.38931612  0.28414224    -1.02610
O1258       O  0.60391801  0.06147750  0.36389434    -0.92280
C1259       C  0.90599882  0.39492111  0.24923033     1.22180
O1260       O  0.55953677  0.47171708  0.28245486    -1.03000
O1261       O  0.56864333  0.09452588  0.36479865    -0.90400
O1262       O  0.51843747  0.38187752  0.36232486    -0.90010
O1263       O  0.85200225  0.43198515  0.36295167    -0.90030
Mn1264     Mn  0.52299207  0.06966642  0.32193403     1.47860
O1265       O  0.52441253  0.46959323  0.40260973    -0.78510
C1266       C  0.90539461  0.39546607  0.39188856     1.15230
O1267       O  0.97634999  0.01323264  0.23987605    -0.77240
O1268       O  0.97991312  0.01081248  0.40468833    -0.76850
Mn1269     Mn  0.92737659  0.36960421  0.32087293     1.51060
O1270       O  0.51596025  0.38142870  0.27628083    -0.89210
O1271       O  0.97794737  0.04753540  0.35937716    -0.96730
O1272       O  0.94988119  0.34672512  0.36497409    -0.91740
C1273       C  0.97856817  0.04184316  0.39415688     1.13020
C1274       C  0.95057900  0.08692562  0.40939689    -0.20520
C1275       C  0.97487117  0.07008346  0.42147372    -0.07080
C1276       C  0.99660802  0.08292302  0.45708269     0.13790
C1277       C  0.99539630  0.11407786  0.47835945    -0.20570
C1278       C  0.97207274  0.13181257  0.46540967    -0.07090
C1279       C  0.94753892  0.11623984  0.43154426     0.13770
C1280       C  0.91720163  0.12904045  0.41813735    -0.23920
H1281       H  0.93327181  0.07683119  0.38238088     0.15060
H1282       H  0.51405154  0.12575277  0.00446447     0.15090
C1283       C  0.52272745  0.06558624  0.47166414    -0.23870
H1284       H  0.88655843  0.10169972  0.41406496     0.05300
H1285       H  0.92723976  0.14519577  0.38983874     0.08530
H1286       H  0.91322867  0.14876988  0.43947136     0.08530
H1287       H  0.54633152  0.07039014  0.44968568     0.08510
H1288       H  0.00316416  0.03256514  0.47719307     0.08510
H1289       H  0.53875376  0.08019691  0.99932650     0.05290
C1290       C  0.02045665  0.31769935  0.40284362    -0.20520
C1291       C  0.98854755  0.32691039  0.40646815    -0.07080
C1292       C  0.96108761  0.31017372  0.43811847     0.13790
C1293       C  0.96545714  0.28404014  0.46437407    -0.20570
C1294       C  0.99605784  0.27333643  0.45950928    -0.07090
C1295       C  0.02456313  0.29121112  0.42878399     0.13770
C1296       C  0.05976898  0.28323207  0.42252257    -0.23920
H1297       H  0.04200644  0.33058303  0.37897625     0.15060
H1298       H  0.94354226  0.27026973  0.98783260     0.15090
C1299       C  0.92751717  0.32013368  0.44481742    -0.23870
H1300       H  0.08908184  0.31252981  0.42232563     0.05300
H1301       H  0.05593046  0.26783962  0.39400695     0.08530
H1302       H  0.56233951  0.26422196  0.44572484     0.08530
H1303       H  0.90449196  0.30746566  0.42093632     0.08510
H1304       H  0.94132962  0.35352125  0.44578050     0.08510
H1305       H  0.91127175  0.30751733  0.97275397     0.05290
C1306       C  0.50321414  0.08679373  0.19221564    -0.20520
C1307       C  0.97706167  0.07582176  0.22471056    -0.07080
C1308       C  0.95693441  0.09849665  0.23271309     0.13790
C1309       C  0.96137311  0.12889447  0.20696722    -0.20570
C1310       C  0.98819237  0.14082582  0.17524226    -0.07090
C1311       C  0.50990268  0.11962311  0.16792746     0.13770
C1312       C  0.54168668  0.13240125  0.13630496    -0.23920
H1313       H  0.51996062  0.07073428  0.18678620     0.15060
H1314       H  0.94368235  0.14405149  0.21205321     0.15090
C1315       C  0.92944072  0.09122185  0.26728110    -0.23870
H1316       H  0.56156320  0.11854887  0.14047054     0.05300
H1317       H  0.56172000  0.16585454  0.13654752     0.08530
H1318       H  0.52670095  0.12236258  0.10741121     0.08530
H1319       H  0.94385959  0.08975850  0.29501849     0.08510
H1320       H  0.89979393  0.06378157  0.26189013     0.08510
H1321       H  0.92219373  0.11613905  0.27113262     0.05290
C1322       C  0.52044131  0.29094096  0.20668311    -0.20520
C1323       C  0.98979229  0.27221588  0.17804685    -0.07080
C1324       C  0.95574611  0.27891565  0.17858096     0.13790
C1325       C  0.95404797  0.30492982  0.20700232    -0.20570
C1326       C  0.98503113  0.32386135  0.23536161    -0.07090
C1327       C  0.51759724  0.31493141  0.23623181     0.13770
C1328       C  0.54697330  0.32661756  0.27038527    -0.23920
H1329       H  0.54568279  0.28460583  0.20731712     0.15060
H1330       H  0.92785848  0.30971104  0.20762339     0.15090
C1331       C  0.92004158  0.25715173  0.15086921    -0.23870
H1332       H  0.56760212  0.31345865  0.26785892     0.05300
H1333       H  0.52936086  0.31507487  0.29784531     0.08530
H1334       H  0.56680215  0.35989833  0.27246264     0.08530
H1335       H  0.90731573  0.22381646  0.15328795     0.08510
H1336       H  0.92998202  0.26697334  0.12051227     0.08510
H1337       H  0.89494949  0.26385348  0.15733111     0.05290
C1338       C  0.84327319  0.99697817  0.43571882    -0.20520
C1339       C  0.83067569  0.46254751  0.41179383    -0.07080
C1340       C  0.79097939  0.42844606  0.41776263     0.13790
C1341       C  0.76521233  0.43032530  0.44621122    -0.20570
C1342       C  0.77727039  0.46541971  0.46838504    -0.07090
C1343       C  0.81694353  0.99905784  0.46346400     0.13770
C1344       C  0.83076066  0.03802516  0.48578985    -0.23920
H1345       H  0.87344743  0.02309767  0.43189422     0.15060
H1346       H  0.73446153  0.40488749  0.44994420     0.15090
C1347       C  0.77426430  0.39045548  0.39347475    -0.23870
H1348       H  0.86230885  0.06164059  0.47765144     0.05300
H1349       H  0.83084602  0.03238454  0.51752043     0.08530
H1350       H  0.80970723  0.05015565  0.47964941     0.08530
H1351       H  0.79383031  0.37654393  0.39774308     0.08510
H1352       H  0.77354906  0.39775792  0.36222777     0.08510
H1353       H  0.74255015  0.36751394  0.40196284     0.05290
C1354       C  0.58069546  0.46058636  0.45446842    -0.20520
C1355       C  0.59013444  0.47466095  0.41597668    -0.07080
C1356       C  0.63106153  0.48995365  0.40255814     0.13790
C1357       C  0.66144994  0.49440256  0.42895533    -0.20570
C1358       C  0.65198066  0.47868047  0.46682215    -0.07090
C1359       C  0.61057596  0.46063746  0.47954277     0.13770
C1360       C  0.59664571  0.43893455  0.01808380    -0.23920
H1361       H  0.54926494  0.44757347  0.46439025     0.15060
H1362       H  0.69297545  0.00853239  0.41910568     0.15090
C1363       C  0.64364460  0.49989665  0.36033932    -0.23870
H1364       H  0.56262456  0.42137196  0.01998113     0.05300
H1365       H  0.60739245  0.46099121  0.04246332     0.08530
H1366       H  0.60814154  0.41712997  0.02171456     0.08530
H1367       H  0.63887504  0.02475135  0.34981100     0.08510
H1368       H  0.62609472  0.47244481  0.34194278     0.08510
H1369       H  0.67666681  0.00996971  0.35594287     0.05290
C1370       C  0.79883880  0.46320144  0.17390228    -0.20520
C1371       C  0.78387526  0.48951777  0.18378669    -0.07080
C1372       C  0.79586751  0.51049434  0.21980771     0.13790
C1373       C  0.81833432  0.50116033  0.24646207    -0.20570
C1374       C  0.83186591  0.47351155  0.23739428    -0.07090
C1375       C  0.82334242  0.45561882  0.19993688     0.13770
C1376       C  0.83974303  0.42854949  0.18722201    -0.23920
H1377       H  0.79001899  0.44721663  0.14625299     0.15060
H1378       H  0.82593628  0.51628241  0.27459503     0.15090
C1379       C  0.78652864  0.54364942  0.23079078    -0.23870
H1380       H  0.83243682  0.41926854  0.15618869     0.05300
H1381       H  0.82503423  0.40088819  0.20510323     0.08530
H1382       H  0.87361309  0.44425921  0.19098855     0.08530
H1383       H  0.76587672  0.53404041  0.25645166     0.08510
H1384       H  0.77216982  0.05179028  0.20666699     0.08510
H1385       H  0.81556592  0.57161036  0.23848311     0.05290
C1386       C  0.59740686  0.44382938  0.22992461    -0.20520
C1387       C  0.57991733  0.46777475  0.21932552    -0.07080
C1388       C  0.59110577  0.48906790  0.18360403     0.13790
C1389       C  0.62278498  0.48920605  0.16167263    -0.20570
C1390       C  0.64166580  0.46675409  0.17364132    -0.07090
C1391       C  0.62617893  0.44109315  0.20641109     0.13770
C1392       C  0.63860875  0.40995365  0.21698921    -0.23920
H1393       H  0.58873775  0.42713022  0.25700456     0.15060
H1394       H  0.63405169  0.50831173  0.13605095     0.15090
C1395       C  0.57201388  0.51383971  0.16990950    -0.23870
H1396       H  0.61088111  0.37946362  0.21784405     0.05300
H1397       H  0.65373474  0.41707603  0.24607446     0.08530
H1398       H  0.65933533  0.40783701  0.19535894     0.08530
H1399       H  0.57653385  0.03694811  0.19216749     0.08510
H1400       H  0.53865521  0.49363113  0.16475681     0.08510
H1401       H  0.58582751  0.52993650  0.14221375     0.05290
C1402       C  0.83590083  0.33654163  0.40057631    -0.20520
C1403       C  0.87226056  0.36640285  0.41833123    -0.07080
C1404       C  0.87451641  0.36755980  0.45960847     0.13790
C1405       C  0.84323375  0.33543432  0.48109698    -0.20570
C1406       C  0.80709981  0.30493779  0.46300552    -0.07090
C1407       C  0.80238027  0.30848610  0.42228377     0.13770
C1408       C  0.76195080  0.28581186  0.40066991    -0.23920
H1409       H  0.83216638  0.33664976  0.36920670     0.15060
H1410       H  0.84743674  0.33440937  0.01221516     0.15090
C1411       C  0.90888549  0.40251588  0.48140261    -0.23870
H1412       H  0.75724932  0.30690469  0.38167787     0.05300
H1413       H  0.73534464  0.27244945  0.42059123     0.08530
H1414       H  0.76198069  0.26205954  0.38172125     0.08530
H1415       H  0.90907809  0.43112428  0.47379382     0.08510
H1416       H  0.93907627  0.40565604  0.47410773     0.08510
H1417       H  0.90497768  0.39848887  0.01347378     0.05290
C1418       C  0.66433602  0.18300409  0.43891282    -0.20520
C1419       C  0.68499323  0.16904899  0.46310445    -0.07080
C1420       C  0.67485113  0.12794172  0.46108549     0.13790
C1421       C  0.64526507  0.10214283  0.43366593    -0.20570
C1422       C  0.62553203  0.11653558  0.40827479    -0.07090
C1423       C  0.63507060  0.15766277  0.41146289     0.13770
C1424       C  0.61630946  0.17606294  0.38501051    -0.23920
H1425       H  0.67194237  0.21452347  0.44102960     0.15060
H1426       H  0.63796422  0.07070666  0.43167956     0.15090
C1427       C  0.69597859  0.11167231  0.98691361    -0.23870
H1428       H  0.62944920  0.20913768  0.39032907     0.05300
H1429       H  0.58277259  0.16151096  0.39021734     0.08530
H1430       H  0.62224052  0.17212343  0.35405797     0.08530
H1431       H  0.68988034  0.11492516  0.01796244     0.08510
H1432       H  0.72958755  0.12881367  0.98174146     0.08510
H1433       H  0.68492100  0.07899272  0.98114272     0.05290
C1434       C  0.85077659  0.32311572  0.16386963    -0.20520
C1435       C  0.80992215  0.30347712  0.17746719    -0.07080
C1436       C  0.80142283  0.31685045  0.21308955     0.13790
C1437       C  0.83392569  0.34478656  0.23612524    -0.20570
C1438       C  0.87444502  0.36482824  0.22250686    -0.07090
C1439       C  0.88283570  0.35495796  0.18520499     0.13770
C1440       C  0.92524832  0.37751689  0.16801472    -0.23920
H1441       H  0.85771079  0.31382359  0.13638498     0.15060
H1442       H  0.82705536  0.35317409  0.26417634     0.15090
C1443       C  0.75840992  0.30550754  0.22563741    -0.23870
H1444       H  0.92687250  0.36437910  0.13957148     0.05300
H1445       H  0.94801989  0.37651816  0.18808605     0.08530
H1446       H  0.93377657  0.40972048  0.16313537     0.08530
H1447       H  0.74338015  0.27584182  0.24079159     0.08510
H1448       H  0.73980290  0.30489952  0.20008408     0.08510
H1449       H  0.75877812  0.32822618  0.24638239     0.05290
C1450       C  0.68424844  0.14302142  0.19098307    -0.20520
C1451       C  0.67791664  0.17436970  0.17775631    -0.07080
C1452       C  0.64396624  0.17714141  0.19140133     0.13790
C1453       C  0.61668717  0.14800881  0.21787023    -0.20570
C1454       C  0.62357372  0.11708061  0.23265022    -0.07090
C1455       C  0.65830005  0.11481519  0.21866946     0.13770
C1456       C  0.67023145  0.08450246  0.23359815    -0.23920
H1457       H  0.71109512  0.14194787  0.18089740     0.15060
H1458       H  0.59076085  0.15055917  0.22819051     0.15090
C1459       C  0.63782535  0.21208943  0.17952816    -0.23870
H1460       H  0.69818725  0.08779561  0.21912700     0.05300
H1461       H  0.64533754  0.05314269  0.22790507     0.08530
H1462       H  0.67697880  0.08908142  0.26532491     0.08530
H1463       H  0.63483932  0.21246548  0.14734496     0.08510
H1464       H  0.66462165  0.24115994  0.18909473     0.08510
H1465       H  0.60981784  0.20991054  0.19281461     0.05290
C1466       C  0.71076883  0.20722024  0.65462227     0.02920
C1467       C  0.70739807  0.20993851  0.61418000    -0.13230
C1468       C  0.74017363  0.24057004  0.59242034     0.00420
C1469       C  0.77405185  0.27119194  0.61357260    -0.11760
C1470       C  0.77641820  0.26969553  0.65446948     0.02910
C1471       C  0.74619749  0.23559735  0.67392043    -0.11180
H1472       H  0.67940124  0.18742089  0.60037305     0.08500
H1473       H  0.79916809  0.29612834  0.59877145     0.06030
H1474       H  0.74959554  0.23143458  0.70464703     0.05880
C1475       C  0.71885334  0.19988836  0.98756462     0.02920
C1476       C  0.75264452  0.23111002  0.96872934    -0.13230
C1477       C  0.77591660  0.26934865  0.98639044     0.00420
C1478       C  0.76918163  0.27294527  0.52629703    -0.11760
C1479       C  0.74071200  0.23897810  0.54835125     0.02910
C1480       C  0.71395744  0.20302088  0.52760759    -0.11180
H1481       H  0.75835579  0.22612341  0.93894168     0.08500
H1482       H  0.78580334  0.30243291  0.53981410     0.06030
H1483       H  0.68894492  0.17727591  0.54165401     0.05880
C1484       C  0.75103662  0.48923520  0.65906832     0.02920
C1485       C  0.75388933  0.49119876  0.61817864    -0.13230
C1486       C  0.71955954  0.48359297  0.59494682     0.00420
C1487       C  0.68250329  0.47418036  0.61373729    -0.11760
C1488       C  0.67997659  0.47407635  0.65427611     0.02910
C1489       C  0.71436105  0.48182948  0.67666051    -0.11180
H1490       H  0.78279146  0.49823030  0.60496580     0.08500
H1491       H  0.65477925  0.46563201  0.59719617     0.06030
H1492       H  0.71202514  0.48064025  0.70814280     0.05880
C1493       C  0.74557651  0.46876190  0.99100286     0.02920
C1494       C  0.74830119  0.47385433  0.53153290    -0.13230
C1495       C  0.72060403  0.48249156  0.55142008     0.00420
C1496       C  0.69179929  0.48788997  0.52927111    -0.11760
C1497       C  0.68544354  0.47765118  0.98968877     0.02910
C1498       C  0.71266778  0.46792013  0.97088924    -0.11180
H1499       H  0.77161774  0.47043086  0.54697173     0.08500
H1500       H  0.67426681  0.50011761  0.54276402     0.06030
H1501       H  0.70922361  0.46087248  0.94001143     0.05880
C1502       C  0.49084340  0.24010973  0.65363408     0.02920
C1503       C  0.48777260  0.23910622  0.61269874    -0.13230
C1504       C  0.48756654  0.20713489  0.59089339     0.00420
C1505       C  0.48977931  0.17592984  0.61186663    -0.11760
C1506       C  0.49297100  0.17666472  0.65254632     0.02910
C1507       C  0.49477091  0.20959133  0.67278253    -0.11180
H1508       H  0.48551686  0.26331186  0.59847938     0.08500
H1509       H  0.48803244  0.15013520  0.59726489     0.06030
H1510       H  0.99731046  0.21049761  0.70431549     0.05880
C1511       C  0.99328545  0.23926546  0.98331364     0.02920
C1512       C  0.99349170  0.24055396  0.52434217    -0.13230
C1513       C  0.98505507  0.20582378  0.54679570     0.00420
C1514       C  0.97501373  0.16958431  0.52633083    -0.11760
C1515       C  0.97718489  0.16873972  0.98566585     0.03030
C1516       C  0.98659077  0.20378240  0.96442844    -0.11180
H1517       H  0.00070555  0.26901158  0.53796990     0.08500
H1518       H  0.96506993  0.14118110  0.54118459     0.06030
H1519       H  0.98784957  0.20323375  0.93288560     0.05880
O1520       O  0.88431673  0.50036262  0.78376758    -0.88390
C1521       C  0.59744833  0.08903553  0.87734419     1.11650
O1522       O  0.93589133  0.46856659  0.82187707    -1.36200
O1523       O  0.56732185  0.09551899  0.77728523    -0.89870
O1524       O  0.85333912  0.43342012  0.77503376    -0.90540
O1525       O  0.93623663  0.42750246  0.73817292    -0.79360
O1526       O  0.97549172  0.04899747  0.78671658    -1.01450
C1527       C  0.55232943  0.47123307  0.74771862     1.21690
O1528       O  0.98058624  0.42784489  0.82002494    -1.36340
Mn1529     Mn  0.98000360  0.46911405  0.86360861     1.82050
O1530       O  0.52063010  0.47206732  0.73771447    -0.78440
O1531       O  0.60201982  0.06183974  0.77685180    -0.87830
C1532       C  0.55687393  0.47173606  0.89012666     1.12780
C1533       C  0.59574966  0.08967183  0.76391995     1.07500
O1534       O  0.93769731  0.42607902  0.90340939    -0.79370
O1535       O  0.52109103  0.01265081  0.82096333    -1.33070
O1536       O  0.90093351  0.39003040  0.85676722    -0.98590
C1537       C  0.98252064  0.35151546  0.76464891     1.06220
Mn1538     Mn  0.57954206  0.01727174  0.81956709     1.48570
O1539       O  0.94769018  0.34408431  0.77758978    -0.87780
Mn1540     Mn  0.87870504  0.41371059  0.81977214     1.49560
O1541       O  0.88766808  0.49917999  0.86973375    -0.91660
C1542       C  0.97517904  0.04407907  0.75167101     1.19410
C1543       C  0.85852662  0.46454286  0.87971072     1.11470
Mn1544     Mn  0.97837279  0.47040278  0.77851239     1.80970
O1545       O  0.56062672  0.47174382  0.85512027    -0.96810
Mn1546     Mn  0.93081301  0.02156727  0.82468728     1.49260
C1547       C  0.85818463  0.46830690  0.76671470     1.07990
Mn1548     Mn  0.53609293  0.42615781  0.81902651     1.49930
C1549       C  0.98521091  0.35372521  0.87651293     1.10890
O1550       O  0.90101126  0.38931612  0.78414224    -1.02610
O1551       O  0.60391801  0.06147749  0.86389434    -0.92280
C1552       C  0.90599882  0.39492111  0.74923033     1.22180
O1553       O  0.55953677  0.47171708  0.78245486    -1.03000
O1554       O  0.56864332  0.09452588  0.86479865    -0.90400
O1555       O  0.51843748  0.38187752  0.86232486    -0.90010
O1556       O  0.85200225  0.43198515  0.86295167    -0.90030
Mn1557     Mn  0.52299206  0.06966642  0.82193403     1.47860
O1558       O  0.52441254  0.46959324  0.90260973    -0.78510
C1559       C  0.90539461  0.39546607  0.89188856     1.15230
O1560       O  0.97634998  0.01323264  0.73987605    -0.77240
O1561       O  0.97991312  0.01081248  0.90468833    -0.76850
Mn1562     Mn  0.92737659  0.36960421  0.82087293     1.51060
O1563       O  0.51596026  0.38142870  0.77628083    -0.89210
O1564       O  0.97794736  0.04753539  0.85937715    -0.96730
O1565       O  0.94988119  0.34672512  0.86497409    -0.91740
C1566       C  0.97856817  0.04184316  0.89415688     1.13020
C1567       C  0.95057900  0.08692561  0.90939689    -0.20520
C1568       C  0.97487117  0.07008346  0.92147372    -0.07080
C1569       C  0.99660802  0.08292302  0.95708269     0.13790
C1570       C  0.99539630  0.11407786  0.97835945    -0.20570
C1571       C  0.97207274  0.13181257  0.96540967    -0.07090
C1572       C  0.94753891  0.11623984  0.93154426     0.13770
C1573       C  0.91720163  0.12904044  0.91813735    -0.23920
H1574       H  0.93327181  0.07683119  0.88238088     0.15060
H1575       H  0.51405156  0.12575278  0.50446447     0.15090
C1576       C  0.52272744  0.06558624  0.97166414    -0.23870
H1577       H  0.88655842  0.10169971  0.91406496     0.05300
H1578       H  0.92723976  0.14519576  0.88983874     0.08530
H1579       H  0.91322867  0.14876988  0.93947136     0.08530
H1580       H  0.54633151  0.07039014  0.94968568     0.08510
H1581       H  0.00316416  0.03256514  0.97719307     0.08510
H1582       H  0.53875377  0.08019692  0.49932650     0.05290
C1583       C  0.02045665  0.31769936  0.90284363    -0.20520
C1584       C  0.98854755  0.32691039  0.90646815    -0.07080
C1585       C  0.96108759  0.31017370  0.93811847     0.13790
C1586       C  0.96545712  0.28404013  0.96437406    -0.20570
C1587       C  0.99605784  0.27333642  0.95950928    -0.07090
C1588       C  0.02456313  0.29121112  0.92878400     0.13770
C1589       C  0.05976899  0.28323208  0.92252258    -0.23920
H1590       H  0.04200645  0.33058305  0.87897626     0.15060
H1591       H  0.94354228  0.27026975  0.48783261     0.15090
C1592       C  0.92751715  0.32013365  0.94481741    -0.23870
H1593       H  0.08908184  0.31252983  0.92232565     0.05300
H1594       H  0.05593048  0.26783964  0.89400696     0.08530
H1595       H  0.56233948  0.26422191  0.94572479     0.08530
H1596       H  0.90449194  0.30746563  0.92093630     0.08510
H1597       H  0.94132959  0.35352122  0.94578049     0.08510
H1598       H  0.91127178  0.30751737  0.47275399     0.05290
C1599       C  0.50321414  0.08679373  0.69221565    -0.20520
C1600       C  0.97706166  0.07582174  0.72471055    -0.07080
C1601       C  0.95693438  0.09849662  0.73271307     0.13790
C1602       C  0.96137308  0.12889445  0.70696720    -0.20570
C1603       C  0.98819235  0.14082581  0.67524225    -0.07090
C1604       C  0.50990268  0.11962311  0.66792747     0.13770
C1605       C  0.54168669  0.13240126  0.63630498    -0.23920
H1606       H  0.51996063  0.07073429  0.68678621     0.15060
H1607       H  0.94368231  0.14405146  0.71205319     0.15090
C1608       C  0.92944065  0.09122179  0.76728106    -0.23870
H1609       H  0.56156321  0.11854888  0.64047055     0.05300
H1610       H  0.56172000  0.16585455  0.63654754     0.08530
H1611       H  0.52670097  0.12236260  0.60741122     0.08530
H1612       H  0.94385948  0.08975840  0.79501846     0.08510
H1613       H  0.89979386  0.06378153  0.76189004     0.08510
H1614       H  0.92219367  0.11613900  0.77113258     0.05290
C1615       C  0.52044130  0.29094095  0.70668312    -0.20520
C1616       C  0.98979229  0.27221587  0.67804685    -0.07080
C1617       C  0.95574610  0.27891565  0.67858096     0.13790
C1618       C  0.95404796  0.30492982  0.70700232    -0.20570
C1619       C  0.98503112  0.32386135  0.73536161    -0.07090
C1620       C  0.51759724  0.31493141  0.73623182     0.13770
C1621       C  0.54697330  0.32661756  0.77038527    -0.23920
H1622       H  0.54568278  0.28460582  0.70731713     0.15060
H1623       H  0.92785847  0.30971104  0.70762339     0.15090
C1624       C  0.92004158  0.25715173  0.65086920    -0.23870
H1625       H  0.56760213  0.31345865  0.76785892     0.05300
H1626       H  0.52936086  0.31507487  0.79784532     0.08530
H1627       H  0.56680215  0.35989833  0.77246264     0.08530
H1628       H  0.90731573  0.22381646  0.65328795     0.08510
H1629       H  0.92998202  0.26697334  0.62051227     0.08510
H1630       H  0.89494949  0.26385348  0.65733110     0.05290
C1631       C  0.84327318  0.99697817  0.93571882    -0.20520
C1632       C  0.83067569  0.46254750  0.91179383    -0.07080
C1633       C  0.79097938  0.42844606  0.91776262     0.13790
C1634       C  0.76521232  0.43032530  0.94621121    -0.20570
C1635       C  0.77727039  0.46541970  0.96838504    -0.07090
C1636       C  0.81694352  0.99905783  0.96346400     0.13770
C1637       C  0.83076064  0.03802515  0.98578985    -0.23920
H1638       H  0.87344742  0.02309766  0.93189422     0.15060
H1639       H  0.73446151  0.40488750  0.94994418     0.15090
C1640       C  0.77426428  0.39045550  0.89347472    -0.23870
H1641       H  0.86230884  0.06164058  0.97765144     0.05300
H1642       H  0.83084601  0.03238453  0.01752042     0.08530
H1643       H  0.80970721  0.05015564  0.97964941     0.08530
H1644       H  0.79383028  0.37654393  0.89774304     0.08510
H1645       H  0.77354905  0.39775796  0.86222774     0.08510
H1646       H  0.74255013  0.36751397  0.90196279     0.05290
C1647       C  0.58069547  0.46058636  0.95446842    -0.20520
C1648       C  0.59013444  0.47466096  0.91597668    -0.07080
C1649       C  0.63106153  0.48995366  0.90255814     0.13790
C1650       C  0.66144995  0.49440257  0.92895534    -0.20570
C1651       C  0.65198066  0.47868048  0.96682215    -0.07090
C1652       C  0.61057596  0.46063747  0.97954277     0.13770
C1653       C  0.59664571  0.43893455  0.51808379    -0.23920
H1654       H  0.54926494  0.44757347  0.96439025     0.15060
H1655       H  0.69297544  0.00853237  0.91910568     0.15090
C1656       C  0.64364460  0.49989665  0.86033932    -0.23870
H1657       H  0.56262456  0.42137195  0.51998113     0.05300
H1658       H  0.60739244  0.46099120  0.54246332     0.08530
H1659       H  0.60814153  0.41712996  0.52171456     0.08530
H1660       H  0.63887504  0.02475135  0.84981101     0.08510
H1661       H  0.62609472  0.47244481  0.84194279     0.08510
H1662       H  0.67666680  0.00996970  0.85594287     0.05290
C1663       C  0.79883879  0.46320143  0.67390228    -0.20520
C1664       C  0.78387526  0.48951777  0.68378669    -0.07080
C1665       C  0.79586751  0.51049434  0.71980770     0.13790
C1666       C  0.81833433  0.50116033  0.74646206    -0.20570
C1667       C  0.83186590  0.47351155  0.73739428    -0.07090
C1668       C  0.82334241  0.45561881  0.69993689     0.13770
C1669       C  0.83974300  0.42854947  0.68722202    -0.23920
H1670       H  0.79001898  0.44721662  0.64625300     0.15060
H1671       H  0.82593628  0.51628241  0.77459502     0.15090
C1672       C  0.78652865  0.54364943  0.73079077    -0.23870
H1673       H  0.83243679  0.41926851  0.65618870     0.05300
H1674       H  0.82503420  0.40088817  0.70510325     0.08530
H1675       H  0.87361306  0.44425918  0.69098855     0.08530
H1676       H  0.76587673  0.53404042  0.75645165     0.08510
H1677       H  0.77216973  0.05179020  0.70666704     0.08510
H1678       H  0.81556593  0.57161037  0.73848309     0.05290
C1679       C  0.59740686  0.44382938  0.72992461    -0.20520
C1680       C  0.57991734  0.46777475  0.71932552    -0.07080
C1681       C  0.59110578  0.48906790  0.68360403     0.13790
C1682       C  0.62278498  0.48920605  0.66167263    -0.20570
C1683       C  0.64166580  0.46675410  0.67364132    -0.07090
C1684       C  0.62617893  0.44109315  0.70641109     0.13770
C1685       C  0.63860876  0.40995365  0.71698921    -0.23920
H1686       H  0.58873776  0.42713022  0.75700456     0.15060
H1687       H  0.63405169  0.50831173  0.63605095     0.15090
C1688       C  0.57201388  0.51383971  0.66990950    -0.23870
H1689       H  0.61088112  0.37946362  0.71784405     0.05300
H1690       H  0.65373475  0.41707604  0.74607446     0.08530
H1691       H  0.65933533  0.40783701  0.69535894     0.08530
H1692       H  0.57653386  0.03694811  0.69216750     0.08510
H1693       H  0.53865521  0.49363113  0.66475681     0.08510
H1694       H  0.58582751  0.52993650  0.64221375     0.05290
C1695       C  0.83590082  0.33654164  0.90057631    -0.20520
C1696       C  0.87226056  0.36640285  0.91833123    -0.07080
C1697       C  0.87451641  0.36755980  0.95960847     0.13790
C1698       C  0.84323375  0.33543432  0.98109698    -0.20570
C1699       C  0.80709980  0.30493779  0.96300552    -0.07090
C1700       C  0.80238026  0.30848611  0.92228376     0.13770
C1701       C  0.76195079  0.28581187  0.90066991    -0.23920
H1702       H  0.83216637  0.33664978  0.86920670     0.15060
H1703       H  0.84743675  0.33440937  0.51221516     0.15090
C1704       C  0.90888549  0.40251588  0.98140261    -0.23870
H1705       H  0.75724931  0.30690470  0.88167786     0.05300
H1706       H  0.73534464  0.27244946  0.92059123     0.08530
H1707       H  0.76198068  0.26205954  0.88172125     0.08530
H1708       H  0.90907810  0.43112427  0.97379382     0.08510
H1709       H  0.93907627  0.40565603  0.97410772     0.08510
H1710       H  0.90497767  0.39848888  0.51347378     0.05290
C1711       C  0.66433602  0.18300410  0.93891281    -0.20520
C1712       C  0.68499322  0.16904899  0.96310444    -0.07080
C1713       C  0.67485112  0.12794173  0.96108550     0.13790
C1714       C  0.64526506  0.10214283  0.93366594    -0.20570
C1715       C  0.62553202  0.11653558  0.90827478    -0.07090
C1716       C  0.63507060  0.15766277  0.91146288     0.13770
C1717       C  0.61630947  0.17606294  0.88501049    -0.23920
H1718       H  0.67194236  0.21452347  0.94102959     0.15060
H1719       H  0.63796421  0.07070666  0.93167957     0.15090
C1720       C  0.69597861  0.11167231  0.48691360    -0.23870
H1721       H  0.62944921  0.20913768  0.89032904     0.05300
H1722       H  0.58277260  0.16151096  0.89021732     0.08530
H1723       H  0.62224053  0.17212342  0.85405795     0.08530
H1724       H  0.68988036  0.11492515  0.51796243     0.08510
H1725       H  0.72958757  0.12881367  0.48174145     0.08510
H1726       H  0.68492101  0.07899271  0.48114271     0.05290
C1727       C  0.85077659  0.32311571  0.66386963    -0.20520
C1728       C  0.80992215  0.30347711  0.67746719    -0.07080
C1729       C  0.80142284  0.31685044  0.71308955     0.13790
C1730       C  0.83392569  0.34478655  0.73612524    -0.20570
C1731       C  0.87444503  0.36482823  0.72250687    -0.07090
C1732       C  0.88283570  0.35495796  0.68520499     0.13770
C1733       C  0.92524832  0.37751689  0.66801472    -0.23920
H1734       H  0.85771079  0.31382359  0.63638498     0.15060
H1735       H  0.82705536  0.35317408  0.76417634     0.15090
C1736       C  0.75840992  0.30550752  0.72563741    -0.23870
H1737       H  0.92687250  0.36437910  0.63957149     0.05300
H1738       H  0.94801990  0.37651816  0.68808605     0.08530
H1739       H  0.93377657  0.40972048  0.66313537     0.08530
H1740       H  0.74338016  0.27584180  0.74079159     0.08510
H1741       H  0.73980290  0.30489950  0.70008408     0.08510
H1742       H  0.75877812  0.32822616  0.74638240     0.05290
C1743       C  0.68424844  0.14302141  0.69098308    -0.20520
C1744       C  0.67791665  0.17436969  0.67775631    -0.07080
C1745       C  0.64396625  0.17714140  0.69140133     0.13790
C1746       C  0.61668717  0.14800880  0.71787023    -0.20570
C1747       C  0.62357372  0.11708060  0.73265022    -0.07090
C1748       C  0.65830005  0.11481518  0.71866946     0.13770
C1749       C  0.67023145  0.08450245  0.73359816    -0.23920
H1750       H  0.71109513  0.14194786  0.68089741     0.15060
H1751       H  0.59076086  0.15055916  0.72819050     0.15090
C1752       C  0.63782536  0.21208942  0.67952815    -0.23870
H1753       H  0.69818725  0.08779560  0.71912702     0.05300
H1754       H  0.64533754  0.05314268  0.72790508     0.08530
H1755       H  0.67697879  0.08908141  0.76532491     0.08530
H1756       H  0.63483933  0.21246548  0.64734496     0.08510
H1757       H  0.66462166  0.24115994  0.68909473     0.08510
H1758       H  0.60981785  0.20991054  0.69281461     0.05290
C1759       C  0.71076882  0.70722024  0.15462227     0.02920
C1760       C  0.70739807  0.70993852  0.11418000    -0.13230
C1761       C  0.74017362  0.74057004  0.09242034     0.00420
C1762       C  0.77405184  0.77119194  0.11357259    -0.11760
C1763       C  0.77641820  0.76969554  0.15446948     0.02910
C1764       C  0.74619749  0.73559735  0.17392043    -0.11180
H1765       H  0.67940123  0.68742090  0.10037305     0.08500
H1766       H  0.79916808  0.79612835  0.09877145     0.06030
H1767       H  0.74959553  0.73143459  0.20464703     0.05880
C1768       C  0.71885334  0.69988836  0.48756462     0.02920
C1769       C  0.75264452  0.73111002  0.46872933    -0.13230
C1770       C  0.77591660  0.76934865  0.48639044     0.00420
C1771       C  0.76918162  0.77294528  0.02629703    -0.11760
C1772       C  0.74071199  0.73897811  0.04835125     0.02910
C1773       C  0.71395743  0.70302088  0.02760759    -0.11180
H1774       H  0.75835579  0.72612341  0.43894168     0.08500
H1775       H  0.78580333  0.80243292  0.03981410     0.06030
H1776       H  0.68894491  0.67727591  0.04165401     0.05880
C1777       C  0.75103664  0.98923523  0.15906832     0.02920
C1778       C  0.75388934  0.99119877  0.11817864    -0.13230
C1779       C  0.71955955  0.98359298  0.09494682     0.00420
C1780       C  0.68250330  0.97418038  0.11373730    -0.11760
C1781       C  0.67997661  0.97407639  0.15427612     0.02910
C1782       C  0.71436108  0.98182953  0.17666051    -0.11180
H1783       H  0.78279147  0.99823030  0.10496579     0.08500
H1784       H  0.65477926  0.96563202  0.09719618     0.06030
H1785       H  0.71202517  0.98064031  0.20814280     0.05880
C1786       C  0.74557651  0.96876191  0.49100286     0.02920
C1787       C  0.74830118  0.97385432  0.03153290    -0.13230
C1788       C  0.72060403  0.98249155  0.05142008     0.00420
C1789       C  0.69179929  0.98788997  0.02927111    -0.11760
C1790       C  0.68544354  0.97765118  0.48968877     0.02910
C1791       C  0.71266778  0.96792014  0.47088924    -0.11180
H1792       H  0.77161773  0.97043085  0.04697173     0.08500
H1793       H  0.67426681  0.00011761  0.04276402     0.06030
H1794       H  0.70922362  0.96087248  0.44001143     0.05880
C1795       C  0.49084340  0.74010974  0.15363407     0.02920
C1796       C  0.48777259  0.73910621  0.11269874    -0.13230
C1797       C  0.48756653  0.70713488  0.09089339     0.00420
C1798       C  0.48977930  0.67592983  0.11186663    -0.11760
C1799       C  0.49297100  0.67666472  0.15254632     0.02910
C1800       C  0.49477091  0.70959133  0.17278252    -0.11180
H1801       H  0.48551685  0.76331186  0.09847937     0.08500
H1802       H  0.48803242  0.65013519  0.09726489     0.06030
H1803       H  0.99731046  0.71049761  0.20431549     0.05880
C1804       C  0.99328546  0.73926547  0.48331364     0.02920
C1805       C  0.99349169  0.74055395  0.02434217    -0.13230
C1806       C  0.98505506  0.70582378  0.04679570     0.00420
C1807       C  0.97501372  0.66958431  0.02633083    -0.11760
C1808       C  0.97718491  0.66873973  0.48566585     0.03030
C1809       C  0.98659080  0.70378241  0.46442844    -0.11180
H1810       H  0.00070554  0.76901157  0.03796990     0.08500
H1811       H  0.96506992  0.64118110  0.04118459     0.06030
H1812       H  0.98784960  0.70323377  0.43288560     0.05880
O1813       O  0.88431673  0.00036263  0.28376758    -0.88390
C1814       C  0.59744833  0.58903553  0.37734418     1.11650
O1815       O  0.93589133  0.96856659  0.32187707    -1.36200
O1816       O  0.56732184  0.59551899  0.27728523    -0.89870
O1817       O  0.85333912  0.93342013  0.27503375    -0.90540
O1818       O  0.93623664  0.92750246  0.23817292    -0.79360
O1819       O  0.97549173  0.54899748  0.28671658    -1.01450
C1820       C  0.55232943  0.97123308  0.24771862     1.21690
O1821       O  0.98058625  0.92784490  0.32002494    -1.36340
Mn1822     Mn  0.98000360  0.96911405  0.36360861     1.82050
O1823       O  0.52063010  0.97206732  0.23771447    -0.78440
O1824       O  0.60201982  0.56183974  0.27685180    -0.87830
C1825       C  0.55687394  0.97173606  0.39012666     1.12780
C1826       C  0.59574965  0.58967184  0.26391995     1.07500
O1827       O  0.93769731  0.92607902  0.40340939    -0.79370
O1828       O  0.52109103  0.51265081  0.32096333    -1.33070
O1829       O  0.90093351  0.89003040  0.35676722    -0.98590
C1830       C  0.98252065  0.85151547  0.26464890     1.06220
Mn1831     Mn  0.57954206  0.51727174  0.31956709     1.48570
O1832       O  0.94769019  0.84408432  0.27758977    -0.87780
Mn1833     Mn  0.87870504  0.91371059  0.31977214     1.49560
O1834       O  0.88766809  0.99917999  0.36973375    -0.91660
C1835       C  0.97517904  0.54407908  0.25167101     1.19410
C1836       C  0.85852663  0.96454286  0.37971072     1.11470
Mn1837     Mn  0.97837280  0.97040278  0.27851238     1.80970
O1838       O  0.56062672  0.97174382  0.35512027    -0.96810
Mn1839     Mn  0.93081302  0.52156727  0.32468728     1.49260
C1840       C  0.85818464  0.96830691  0.26671470     1.07990
Mn1841     Mn  0.53609293  0.92615781  0.31902651     1.49930
C1842       C  0.98521091  0.85372521  0.37651292     1.10890
O1843       O  0.90101127  0.88931613  0.28414224    -1.02610
O1844       O  0.60391801  0.56147749  0.36389434    -0.92280
C1845       C  0.90599882  0.89492111  0.24923033     1.22180
O1846       O  0.55953677  0.97171709  0.28245486    -1.03000
O1847       O  0.56864332  0.59452588  0.36479865    -0.90400
O1848       O  0.51843748  0.88187752  0.36232486    -0.90010
O1849       O  0.85200225  0.93198516  0.36295167    -0.90030
Mn1850     Mn  0.52299206  0.56966642  0.32193403     1.47860
O1851       O  0.52441254  0.96959324  0.40260973    -0.78510
C1852       C  0.90539461  0.89546607  0.39188856     1.15230
O1853       O  0.97634999  0.51323264  0.23987605    -0.77240
O1854       O  0.97991312  0.51081248  0.40468833    -0.76850
Mn1855     Mn  0.92737659  0.86960421  0.32087292     1.51060
O1856       O  0.51596026  0.88142871  0.27628082    -0.89210
O1857       O  0.97794737  0.54753540  0.35937716    -0.96730
O1858       O  0.94988119  0.84672512  0.36497409    -0.91740
C1859       C  0.97856818  0.54184316  0.39415688     1.13020
C1860       C  0.95057901  0.58692562  0.40939689    -0.20520
C1861       C  0.97487118  0.57008346  0.42147372    -0.07080
C1862       C  0.99660803  0.58292302  0.45708269     0.13790
C1863       C  0.99539632  0.61407787  0.47835945    -0.20570
C1864       C  0.97207276  0.63181258  0.46540966    -0.07090
C1865       C  0.94753893  0.61623986  0.43154425     0.13770
C1866       C  0.91720165  0.62904047  0.41813734    -0.23920
H1867       H  0.93327182  0.57683120  0.38238088     0.15060
H1868       H  0.51405155  0.62575278  0.00446447     0.15090
C1869       C  0.52272743  0.56558624  0.47166414    -0.23870
H1870       H  0.88655845  0.60169974  0.41406495     0.05300
H1871       H  0.92723979  0.64519579  0.38983873     0.08530
H1872       H  0.91322870  0.64876990  0.43947135     0.08530
H1873       H  0.54633151  0.57039013  0.44968568     0.08510
H1874       H  0.00316417  0.53256514  0.47719307     0.08510
H1875       H  0.53875376  0.58019691  0.99932650     0.05290
C1876       C  0.02045667  0.81769938  0.40284364    -0.20520
C1877       C  0.98854755  0.82691039  0.40646815    -0.07080
C1878       C  0.96108757  0.81017368  0.43811845     0.13790
C1879       C  0.96545711  0.78404011  0.46437405    -0.20570
C1880       C  0.99605784  0.77333643  0.45950929    -0.07090
C1881       C  0.02456315  0.79121115  0.42878401     0.13770
C1882       C  0.05976902  0.78323213  0.42252262    -0.23920
H1883       H  0.04200648  0.83058309  0.37897629     0.15060
H1884       H  0.94354226  0.77026974  0.98783261     0.15090
C1885       C  0.92751710  0.82013360  0.44481737    -0.23870
H1886       H  0.08908187  0.81252988  0.42232570     0.05300
H1887       H  0.05593054  0.76783970  0.39400699     0.08530
H1888       H  0.56233949  0.76422193  0.44572481     0.08530
H1889       H  0.90449191  0.80746557  0.42093625     0.08510
H1890       H  0.94132952  0.85352116  0.44578046     0.08510
H1891       H  0.91127176  0.80751734  0.97275398     0.05290
C1892       C  0.50321413  0.58679373  0.19221564    -0.20520
C1893       C  0.97706166  0.57582175  0.22471056    -0.07080
C1894       C  0.95693439  0.59849662  0.23271308     0.13790
C1895       C  0.96137308  0.62889445  0.20696721    -0.20570
C1896       C  0.98819235  0.64082581  0.17524226    -0.07090
C1897       C  0.50990267  0.61962311  0.16792747     0.13770
C1898       C  0.54168667  0.63240125  0.13630497    -0.23920
H1899       H  0.51996061  0.57073428  0.18678620     0.15060
H1900       H  0.94368232  0.64405147  0.21205319     0.15090
C1901       C  0.92944066  0.59122180  0.26728107    -0.23870
H1902       H  0.56156320  0.61854887  0.14047054     0.05300
H1903       H  0.56171999  0.66585455  0.13654753     0.08530
H1904       H  0.52670095  0.62236259  0.10741122     0.08530
H1905       H  0.94385950  0.58975842  0.29501846     0.08510
H1906       H  0.89979387  0.56378154  0.26189006     0.08510
H1907       H  0.92219368  0.61613901  0.27113260     0.05290
C1908       C  0.52044130  0.79094096  0.20668311    -0.20520
C1909       C  0.98979229  0.77221587  0.17804685    -0.07080
C1910       C  0.95574610  0.77891566  0.17858096     0.13790
C1911       C  0.95404797  0.80492983  0.20700232    -0.20570
C1912       C  0.98503113  0.82386136  0.23536161    -0.07090
C1913       C  0.51759725  0.81493142  0.23623181     0.13770
C1914       C  0.54697331  0.82661757  0.27038526    -0.23920
H1915       H  0.54568279  0.78460583  0.20731711     0.15060
H1916       H  0.92785848  0.80971105  0.20762338     0.15090
C1917       C  0.92004158  0.75715173  0.15086921    -0.23870
H1918       H  0.56760214  0.81345867  0.26785890     0.05300
H1919       H  0.52936088  0.81507489  0.29784530     0.08530
H1920       H  0.56680216  0.85989834  0.27246262     0.08530
H1921       H  0.90731572  0.72381646  0.15328795     0.08510
H1922       H  0.92998202  0.76697334  0.12051227     0.08510
H1923       H  0.89494949  0.76385348  0.15733111     0.05290
C1924       C  0.84327318  0.49697818  0.43571881    -0.20520
C1925       C  0.83067569  0.96254750  0.41179382    -0.07080
C1926       C  0.79097938  0.92844607  0.41776261     0.13790
C1927       C  0.76521232  0.93032530  0.44621121    -0.20570
C1928       C  0.77727039  0.96541970  0.46838504    -0.07090
C1929       C  0.81694352  0.49905785  0.46346399     0.13770
C1930       C  0.83076064  0.53802518  0.48578982    -0.23920
H1931       H  0.87344741  0.52309769  0.43189420     0.15060
H1932       H  0.73446151  0.90488751  0.44994418     0.15090
C1933       C  0.77426428  0.89045550  0.39347472    -0.23870
H1934       H  0.86230883  0.56164061  0.47765140     0.05300
H1935       H  0.83084601  0.53238457  0.51752040     0.08530
H1936       H  0.80970720  0.55015566  0.47964937     0.08530
H1937       H  0.79383028  0.87654393  0.39774303     0.08510
H1938       H  0.77354905  0.89775796  0.36222773     0.08510
H1939       H  0.74255013  0.86751397  0.40196279     0.05290
C1940       C  0.58069547  0.96058636  0.45446842    -0.20520
C1941       C  0.59013445  0.97466096  0.41597668    -0.07080
C1942       C  0.63106153  0.98995366  0.40255814     0.13790
C1943       C  0.66144995  0.99440257  0.42895533    -0.20570
C1944       C  0.65198066  0.97868048  0.46682215    -0.07090
C1945       C  0.61057596  0.96063747  0.47954277     0.13770
C1946       C  0.59664570  0.93893454  0.01808380    -0.23920
H1947       H  0.54926494  0.94757347  0.46439025     0.15060
H1948       H  0.69297544  0.50853238  0.41910568     0.15090
C1949       C  0.64364461  0.99989665  0.36033931    -0.23870
H1950       H  0.56262455  0.92137195  0.01998113     0.05300
H1951       H  0.60739244  0.96099119  0.04246332     0.08530
H1952       H  0.60814153  0.91712995  0.02171456     0.08530
H1953       H  0.63887504  0.52475135  0.34981100     0.08510
H1954       H  0.62609473  0.97244481  0.34194278     0.08510
H1955       H  0.67666680  0.50996971  0.35594287     0.05290
C1956       C  0.79883878  0.96320143  0.17390229    -0.20520
C1957       C  0.78387528  0.98951779  0.18378668    -0.07080
C1958       C  0.79586756  0.01049439  0.21980768     0.13790
C1959       C  0.81833437  0.00116037  0.24646204    -0.20570
C1960       C  0.83186592  0.97351156  0.23739428    -0.07090
C1961       C  0.82334239  0.95561879  0.19993689     0.13770
C1962       C  0.83974294  0.92854941  0.18722204    -0.23920
H1963       H  0.79001894  0.94721660  0.14625301     0.15060
H1964       H  0.82593635  0.01628247  0.27459499     0.15090
C1965       C  0.78652872  0.04364950  0.23079073    -0.23870
H1966       H  0.83243670  0.91926843  0.15618873     0.05300
H1967       H  0.82503412  0.90088812  0.20510329     0.08530
H1968       H  0.87361300  0.94425909  0.19098857     0.08530
H1969       H  0.76587682  0.03404051  0.25645162     0.08510
H1970       H  0.77216974  0.55179021  0.20666704     0.08510
H1971       H  0.81556601  0.07161043  0.23848304     0.05290
C1972       C  0.59740688  0.94382940  0.22992462    -0.20520
C1973       C  0.57991735  0.96777476  0.21932552    -0.07080
C1974       C  0.59110578  0.98906791  0.18360403     0.13790
C1975       C  0.62278500  0.98920607  0.16167264    -0.20570
C1976       C  0.64166582  0.96675413  0.17364133    -0.07090
C1977       C  0.62617897  0.94109319  0.20641111     0.13770
C1978       C  0.63860880  0.90995370  0.21698923    -0.23920
H1979       H  0.58873778  0.92713025  0.25700457     0.15060
H1980       H  0.63405170  0.00831175  0.13605095     0.15090
C1981       C  0.57201388  0.01383971  0.16990950    -0.23870
H1982       H  0.61088117  0.87946366  0.21784407     0.05300
H1983       H  0.65373480  0.91707610  0.24607448     0.08530
H1984       H  0.65933539  0.90783706  0.19535896     0.08530
H1985       H  0.57653385  0.53694811  0.19216749     0.08510
H1986       H  0.53865521  0.99363113  0.16475680     0.08510
H1987       H  0.58582751  0.02993650  0.14221374     0.05290
C1988       C  0.83590082  0.83654164  0.40057631    -0.20520
C1989       C  0.87226056  0.86640285  0.41833123    -0.07080
C1990       C  0.87451641  0.86755979  0.45960846     0.13790
C1991       C  0.84323375  0.83543432  0.48109698    -0.20570
C1992       C  0.80709980  0.80493779  0.46300552    -0.07090
C1993       C  0.80238026  0.80848611  0.42228376     0.13770
C1994       C  0.76195079  0.78581188  0.40066991    -0.23920
H1995       H  0.83216637  0.83664978  0.36920669     0.15060
H1996       H  0.84743674  0.83440937  0.01221516     0.15090
C1997       C  0.90888550  0.90251587  0.48140261    -0.23870
H1998       H  0.75724931  0.80690470  0.38167787     0.05300
H1999       H  0.73534463  0.77244946  0.42059124     0.08530
H2000       H  0.76198068  0.76205955  0.38172125     0.08530
H2001       H  0.90907812  0.93112427  0.47379382     0.08510
H2002       H  0.93907628  0.90565601  0.47410772     0.08510
H2003       H  0.90497767  0.89848887  0.01347378     0.05290
C2004       C  0.66433602  0.68300410  0.43891281    -0.20520
C2005       C  0.68499322  0.66904899  0.46310444    -0.07080
C2006       C  0.67485112  0.62794173  0.46108549     0.13790
C2007       C  0.64526506  0.60214284  0.43366593    -0.20570
C2008       C  0.62553202  0.61653558  0.40827478    -0.07090
C2009       C  0.63507059  0.65766278  0.41146288     0.13770
C2010       C  0.61630946  0.67606294  0.38501050    -0.23920
H2011       H  0.67194236  0.71452347  0.44102959     0.15060
H2012       H  0.63796421  0.57070666  0.43167956     0.15090
C2013       C  0.69597860  0.61167231  0.98691360    -0.23870
H2014       H  0.62944920  0.70913768  0.39032905     0.05300
H2015       H  0.58277259  0.66151096  0.39021733     0.08530
H2016       H  0.62224053  0.67212342  0.35405795     0.08530
H2017       H  0.68988034  0.61492516  0.01796244     0.08510
H2018       H  0.72958756  0.62881368  0.98174146     0.08510
H2019       H  0.68492100  0.57899272  0.98114272     0.05290
C2020       C  0.85077659  0.82311572  0.16386962    -0.20520
C2021       C  0.80992215  0.80347711  0.17746719    -0.07080
C2022       C  0.80142284  0.81685044  0.21308956     0.13790
C2023       C  0.83392569  0.84478654  0.23612525    -0.20570
C2024       C  0.87444503  0.86482824  0.22250686    -0.07090
C2025       C  0.88283570  0.85495797  0.18520498     0.13770
C2026       C  0.92524831  0.87751690  0.16801471    -0.23920
H2027       H  0.85771079  0.81382360  0.13638497     0.15060
H2028       H  0.82705537  0.85317407  0.26417635     0.15090
C2029       C  0.75840993  0.80550751  0.22563743    -0.23870
H2030       H  0.92687250  0.86437912  0.13957147     0.05300
H2031       H  0.94801990  0.87651817  0.18808604     0.08530
H2032       H  0.93377657  0.90972049  0.16313536     0.08530
H2033       H  0.74338019  0.77584182  0.24079166     0.08510
H2034       H  0.73980288  0.80489944  0.20008410     0.08510
H2035       H  0.75877813  0.82822618  0.24638238     0.05290
C2036       C  0.68424843  0.64302141  0.19098307    -0.20520
C2037       C  0.67791664  0.67436969  0.17775631    -0.07080
C2038       C  0.64396624  0.67714140  0.19140133     0.13790
C2039       C  0.61668716  0.64800880  0.21787023    -0.20570
C2040       C  0.62357371  0.61708060  0.23265022    -0.07090
C2041       C  0.65830004  0.61481519  0.21866946     0.13770
C2042       C  0.67023145  0.58450245  0.23359816    -0.23920
H2043       H  0.71109512  0.64194786  0.18089741     0.15060
H2044       H  0.59076085  0.65055916  0.22819050     0.15090
C2045       C  0.63782535  0.71208942  0.17952815    -0.23870
H2046       H  0.69818725  0.58779560  0.21912701     0.05300
H2047       H  0.64533753  0.55314268  0.22790507     0.08530
H2048       H  0.67697879  0.58908142  0.26532491     0.08530
H2049       H  0.63483931  0.71246548  0.14734496     0.08510
H2050       H  0.66462165  0.74115994  0.18909473     0.08510
H2051       H  0.60981783  0.70991053  0.19281460     0.05290
C2052       C  0.71076883  0.70722024  0.65462226     0.02920
C2053       C  0.70739807  0.70993852  0.61417999    -0.13230
C2054       C  0.74017363  0.74057004  0.59242033     0.00420
C2055       C  0.77405184  0.77119194  0.61357259    -0.11760
C2056       C  0.77641820  0.76969554  0.65446947     0.02910
C2057       C  0.74619749  0.73559735  0.67392043    -0.11180
H2058       H  0.67940124  0.68742089  0.60037305     0.08500
H2059       H  0.79916808  0.79612835  0.59877145     0.06030
H2060       H  0.74959553  0.73143458  0.70464703     0.05880
C2061       C  0.71885334  0.69988836  0.98756462     0.02920
C2062       C  0.75264452  0.73111002  0.96872934    -0.13230
C2063       C  0.77591660  0.76934865  0.98639044     0.00420
C2064       C  0.76918163  0.77294528  0.52629703    -0.11760
C2065       C  0.74071199  0.73897810  0.54835124     0.02910
C2066       C  0.71395743  0.70302088  0.52760758    -0.11180
H2067       H  0.75835579  0.72612341  0.93894168     0.08500
H2068       H  0.78580334  0.80243292  0.53981410     0.06030
H2069       H  0.68894492  0.67727591  0.54165401     0.05880
C2070       C  0.75103661  0.98923519  0.65906832     0.02920
C2071       C  0.75388933  0.99119875  0.61817864    -0.13230
C2072       C  0.71955954  0.98359297  0.59494682     0.00420
C2073       C  0.68250329  0.97418036  0.61373729    -0.11760
C2074       C  0.67997658  0.97407634  0.65427611     0.02910
C2075       C  0.71436104  0.98182947  0.67666051    -0.11180
H2076       H  0.78279146  0.99823030  0.60496580     0.08500
H2077       H  0.65477925  0.96563201  0.59719616     0.06030
H2078       H  0.71202513  0.98064023  0.70814280     0.05880
C2079       C  0.74557650  0.96876189  0.99100286     0.02920
C2080       C  0.74830119  0.97385433  0.53153290    -0.13230
C2081       C  0.72060403  0.98249156  0.55142008     0.00420
C2082       C  0.69179930  0.98788998  0.52927111    -0.11760
C2083       C  0.68544353  0.97765116  0.98968877     0.02910
C2084       C  0.71266777  0.96792011  0.97088924    -0.11180
H2085       H  0.77161774  0.97043086  0.54697173     0.08500
H2086       H  0.67426682  0.00011762  0.54276402     0.06030
H2087       H  0.70922360  0.96087246  0.94001143     0.05880
C2088       C  0.49084340  0.74010973  0.65363407     0.02920
C2089       C  0.48777260  0.73910621  0.61269874    -0.13230
C2090       C  0.48756654  0.70713489  0.59089339     0.00420
C2091       C  0.48977931  0.67592984  0.61186663    -0.11760
C2092       C  0.49297100  0.67666472  0.65254632     0.02910
C2093       C  0.49477091  0.70959133  0.67278252    -0.11180
H2094       H  0.48551686  0.76331186  0.59847937     0.08500
H2095       H  0.48803244  0.65013520  0.59726488     0.06030
H2096       H  0.99731046  0.71049761  0.70431549     0.05880
C2097       C  0.99328545  0.73926546  0.98331364     0.02920
C2098       C  0.99349170  0.74055396  0.52434217    -0.13230
C2099       C  0.98505508  0.70582379  0.54679569     0.00420
C2100       C  0.97501374  0.66958432  0.52633083    -0.11760
C2101       C  0.97718489  0.66873972  0.98566585     0.03030
C2102       C  0.98659077  0.70378240  0.96442844    -0.11180
H2103       H  0.00070554  0.76901158  0.53796990     0.08500
H2104       H  0.96506995  0.64118111  0.54118458     0.06030
H2105       H  0.98784957  0.70323375  0.93288560     0.05880
O2106       O  0.88431672  0.00036262  0.78376758    -0.88390
C2107       C  0.59744833  0.58903553  0.87734418     1.11650
O2108       O  0.93589132  0.96856659  0.82187707    -1.36200
O2109       O  0.56732185  0.59551899  0.77728523    -0.89870
O2110       O  0.85333912  0.93342012  0.77503375    -0.90540
O2111       O  0.93623663  0.92750246  0.73817292    -0.79360
O2112       O  0.97549173  0.54899748  0.78671658    -1.01450
C2113       C  0.55232943  0.97123306  0.74771862     1.21690
O2114       O  0.98058624  0.92784489  0.82002494    -1.36340
Mn2115     Mn  0.98000360  0.96911405  0.86360861     1.82050
O2116       O  0.52063010  0.97206731  0.73771447    -0.78440
O2117       O  0.60201982  0.56183974  0.77685180    -0.87830
C2118       C  0.55687393  0.97173606  0.89012666     1.12780
C2119       C  0.59574966  0.58967184  0.76391995     1.07500
O2120       O  0.93769730  0.92607901  0.90340939    -0.79370
O2121       O  0.52109103  0.51265081  0.82096333    -1.33070
O2122       O  0.90093350  0.89003040  0.85676722    -0.98590
C2123       C  0.98252064  0.85151546  0.76464890     1.06220
Mn2124     Mn  0.57954207  0.51727175  0.81956709     1.48570
O2125       O  0.94769018  0.84408431  0.77758978    -0.87780
Mn2126     Mn  0.87870504  0.91371059  0.81977214     1.49560
O2127       O  0.88766808  0.99917998  0.86973375    -0.91660
C2128       C  0.97517904  0.54407907  0.75167101     1.19410
C2129       C  0.85852662  0.96454285  0.87971072     1.11470
Mn2130     Mn  0.97837279  0.97040278  0.77851238     1.80970
O2131       O  0.56062672  0.97174382  0.85512027    -0.96810
Mn2132     Mn  0.93081302  0.52156727  0.82468728     1.49260
C2133       C  0.85818463  0.96830690  0.76671470     1.07990
Mn2134     Mn  0.53609293  0.92615780  0.81902651     1.49930
C2135       C  0.98521091  0.85372521  0.87651293     1.10890
O2136       O  0.90101126  0.88931612  0.78414224    -1.02610
O2137       O  0.60391801  0.56147749  0.86389434    -0.92280
C2138       C  0.90599882  0.89492111  0.74923033     1.22180
O2139       O  0.55953677  0.97171708  0.78245486    -1.03000
O2140       O  0.56864332  0.59452588  0.86479865    -0.90400
O2141       O  0.51843747  0.88187752  0.86232486    -0.90010
O2142       O  0.85200224  0.93198515  0.86295167    -0.90030
Mn2143     Mn  0.52299206  0.56966642  0.82193402     1.47860
O2144       O  0.52441253  0.96959323  0.90260973    -0.78510
C2145       C  0.90539461  0.89546606  0.89188856     1.15230
O2146       O  0.97634999  0.51323264  0.73987605    -0.77240
O2147       O  0.97991312  0.51081248  0.90468833    -0.76850
Mn2148     Mn  0.92737659  0.86960420  0.82087293     1.51060
O2149       O  0.51596025  0.88142870  0.77628083    -0.89210
O2150       O  0.97794737  0.54753540  0.85937715    -0.96730
O2151       O  0.94988119  0.84672512  0.86497409    -0.91740
C2152       C  0.97856817  0.54184316  0.89415688     1.13020
C2153       C  0.95057900  0.58692561  0.90939689    -0.20520
C2154       C  0.97487117  0.57008346  0.92147372    -0.07080
C2155       C  0.99660802  0.58292302  0.95708269     0.13790
C2156       C  0.99539630  0.61407786  0.97835945    -0.20570
C2157       C  0.97207274  0.63181257  0.96540967    -0.07090
C2158       C  0.94753891  0.61623984  0.93154425     0.13770
C2159       C  0.91720163  0.62904044  0.91813735    -0.23920
H2160       H  0.93327181  0.57683119  0.88238088     0.15060
H2161       H  0.51405154  0.62575277  0.50446447     0.15090
C2162       C  0.52272744  0.56558624  0.97166414    -0.23870
H2163       H  0.88655842  0.60169971  0.91406495     0.05300
H2164       H  0.92723976  0.64519576  0.88983874     0.08530
H2165       H  0.91322866  0.64876987  0.93947136     0.08530
H2166       H  0.54633151  0.57039014  0.94968568     0.08510
H2167       H  0.00316416  0.53256514  0.97719307     0.08510
H2168       H  0.53875376  0.58019691  0.49932650     0.05290
C2169       C  0.02045664  0.81769935  0.90284363    -0.20520
C2170       C  0.98854754  0.82691039  0.90646815    -0.07080
C2171       C  0.96108759  0.81017371  0.93811847     0.13790
C2172       C  0.96545712  0.78404013  0.96437406    -0.20570
C2173       C  0.99605783  0.77333642  0.95950928    -0.07090
C2174       C  0.02456313  0.79121112  0.92878400     0.13770
C2175       C  0.05976898  0.78323208  0.92252258    -0.23920
H2176       H  0.04200645  0.83058304  0.87897626     0.15060
H2177       H  0.94354224  0.77026970  0.48783258     0.15090
C2178       C  0.92751715  0.82013366  0.94481741    -0.23870
H2179       H  0.08908184  0.81252982  0.92232565     0.05300
H2180       H  0.05593047  0.76783963  0.89400696     0.08530
H2181       H  0.56233949  0.76422193  0.94572482     0.08530
H2182       H  0.90449194  0.80746563  0.92093631     0.08510
H2183       H  0.94132959  0.85352123  0.94578049     0.08510
H2184       H  0.91127169  0.80751726  0.47275393     0.05290
C2185       C  0.50321414  0.58679373  0.69221564    -0.20520
C2186       C  0.97706166  0.57582175  0.72471055    -0.07080
C2187       C  0.95693438  0.59849662  0.73271307     0.13790
C2188       C  0.96137308  0.62889445  0.70696720    -0.20570
C2189       C  0.98819236  0.64082581  0.67524225    -0.07090
C2190       C  0.50990268  0.61962311  0.66792746     0.13770
C2191       C  0.54168669  0.63240125  0.63630497    -0.23920
H2192       H  0.51996063  0.57073429  0.68678621     0.15060
H2193       H  0.94368232  0.64405146  0.71205319     0.15090
C2194       C  0.92944065  0.59122180  0.76728106    -0.23870
H2195       H  0.56156321  0.61854888  0.64047055     0.05300
H2196       H  0.56172000  0.66585455  0.63654753     0.08530
H2197       H  0.52670097  0.62236260  0.60741122     0.08530
H2198       H  0.94385949  0.58975841  0.79501846     0.08510
H2199       H  0.89979387  0.56378153  0.76189004     0.08510
H2200       H  0.92219367  0.61613900  0.77113258     0.05290
C2201       C  0.52044130  0.79094095  0.70668312    -0.20520
C2202       C  0.98979229  0.77221587  0.67804685    -0.07080
C2203       C  0.95574611  0.77891565  0.67858096     0.13790
C2204       C  0.95404797  0.80492982  0.70700232    -0.20570
C2205       C  0.98503112  0.82386135  0.73536161    -0.07090
C2206       C  0.51759724  0.81493140  0.73623181     0.13770
C2207       C  0.54697329  0.82661755  0.77038527    -0.23920
H2208       H  0.54568278  0.78460582  0.70731712     0.15060
H2209       H  0.92785847  0.80971104  0.70762339     0.15090
C2210       C  0.92004158  0.75715173  0.65086920    -0.23870
H2211       H  0.56760212  0.81345865  0.76785892     0.05300
H2212       H  0.52936086  0.81507487  0.79784531     0.08530
H2213       H  0.56680214  0.85989832  0.77246264     0.08530
H2214       H  0.90731573  0.72381646  0.65328795     0.08510
H2215       H  0.92998202  0.76697334  0.62051227     0.08510
H2216       H  0.89494949  0.76385348  0.65733111     0.05290
C2217       C  0.84327319  0.49697817  0.93571882    -0.20520
C2218       C  0.83067568  0.96254750  0.91179382    -0.07080
C2219       C  0.79097938  0.92844606  0.91776261     0.13790
C2220       C  0.76521231  0.93032529  0.94621121    -0.20570
C2221       C  0.77727038  0.96541969  0.96838503    -0.07090
C2222       C  0.81694353  0.49905784  0.96346400     0.13770
C2223       C  0.83076066  0.53802516  0.98578985    -0.23920
H2224       H  0.87344743  0.52309767  0.93189423     0.15060
H2225       H  0.73446151  0.90488749  0.94994418     0.15090
C2226       C  0.77426428  0.89045549  0.89347472    -0.23870
H2227       H  0.86230885  0.56164059  0.97765144     0.05300
H2228       H  0.83084602  0.53238454  0.01752043     0.08530
H2229       H  0.80970723  0.55015565  0.97964941     0.08530
H2230       H  0.79383027  0.87654392  0.89774303     0.08510
H2231       H  0.77354905  0.89775795  0.86222773     0.08510
H2232       H  0.74255012  0.86751396  0.90196279     0.05290
C2233       C  0.58069546  0.96058635  0.95446842    -0.20520
C2234       C  0.59013444  0.97466095  0.91597668    -0.07080
C2235       C  0.63106152  0.98995365  0.90255814     0.13790
C2236       C  0.66144994  0.99440256  0.92895534    -0.20570
C2237       C  0.65198065  0.97868046  0.96682215    -0.07090
C2238       C  0.61057595  0.96063746  0.97954277     0.13770
C2239       C  0.59664572  0.93893456  0.51808380    -0.23920
H2240       H  0.54926493  0.94757346  0.96439025     0.15060
H2241       H  0.69297545  0.50853238  0.91910568     0.15090
C2242       C  0.64364460  0.99989664  0.86033932    -0.23870
H2243       H  0.56262457  0.92137196  0.51998113     0.05300
H2244       H  0.60739245  0.96099121  0.54246332     0.08530
H2245       H  0.60814154  0.91712997  0.52171456     0.08530
H2246       H  0.63887504  0.52475135  0.84981100     0.08510
H2247       H  0.62609472  0.97244480  0.84194278     0.08510
H2248       H  0.67666681  0.50996972  0.85594287     0.05290
C2249       C  0.79883880  0.96320144  0.67390228    -0.20520
C2250       C  0.78387525  0.98951777  0.68378669    -0.07080
C2251       C  0.79586750  0.01049433  0.71980771     0.13790
C2252       C  0.81833432  0.00116032  0.74646207    -0.20570
C2253       C  0.83186590  0.97351154  0.73739428    -0.07090
C2254       C  0.82334242  0.95561881  0.69993688     0.13770
C2255       C  0.83974303  0.92854950  0.68722201    -0.23920
H2256       H  0.79001899  0.94721663  0.64625299     0.15060
H2257       H  0.82593627  0.01628240  0.77459503     0.15090
C2258       C  0.78652863  0.04364941  0.73079078    -0.23870
H2259       H  0.83243682  0.91926855  0.65618869     0.05300
H2260       H  0.82503424  0.90088819  0.70510322     0.08530
H2261       H  0.87361309  0.94425922  0.69098855     0.08530
H2262       H  0.76587671  0.03404039  0.75645166     0.08510
H2263       H  0.77216975  0.55179022  0.70666703     0.08510
H2264       H  0.81556591  0.07161035  0.73848311     0.05290
C2265       C  0.59740685  0.94382937  0.72992461    -0.20520
C2266       C  0.57991733  0.96777474  0.71932552    -0.07080
C2267       C  0.59110578  0.98906790  0.68360403     0.13790
C2268       C  0.62278498  0.98920605  0.66167263    -0.20570
C2269       C  0.64166579  0.96675409  0.67364131    -0.07090
C2270       C  0.62617893  0.94109314  0.70641109     0.13770
C2271       C  0.63860874  0.90995363  0.71698920    -0.23920
H2272       H  0.58873775  0.92713021  0.75700455     0.15060
H2273       H  0.63405169  0.00831173  0.63605095     0.15090
C2274       C  0.57201389  0.01383971  0.66990950    -0.23870
H2275       H  0.61088110  0.87946361  0.71784404     0.05300
H2276       H  0.65373473  0.91707602  0.74607445     0.08530
H2277       H  0.65933532  0.90783700  0.69535893     0.08530
H2278       H  0.57653385  0.53694811  0.69216749     0.08510
H2279       H  0.53865521  0.99363114  0.66475681     0.08510
H2280       H  0.58582752  0.02993650  0.64221375     0.05290
C2281       C  0.83590081  0.83654164  0.90057631    -0.20520
C2282       C  0.87226055  0.86640285  0.91833123    -0.07080
C2283       C  0.87451640  0.86755980  0.95960846     0.13790
C2284       C  0.84323375  0.83543432  0.98109698    -0.20570
C2285       C  0.80709980  0.80493779  0.96300552    -0.07090
C2286       C  0.80238025  0.80848611  0.92228376     0.13770
C2287       C  0.76195079  0.78581187  0.90066991    -0.23920
H2288       H  0.83216637  0.83664977  0.86920670     0.15060
H2289       H  0.84743675  0.83440936  0.51221516     0.15090
C2290       C  0.90888549  0.90251588  0.98140261    -0.23870
H2291       H  0.75724931  0.80690469  0.88167786     0.05300
H2292       H  0.73534463  0.77244945  0.92059123     0.08530
H2293       H  0.76198068  0.76205954  0.88172125     0.08530
H2294       H  0.90907809  0.93112428  0.97379382     0.08510
H2295       H  0.93907627  0.90565603  0.97410772     0.08510
H2296       H  0.90497769  0.89848885  0.51347378     0.05290
C2297       C  0.66433601  0.68300410  0.93891282    -0.20520
C2298       C  0.68499322  0.66904899  0.96310445    -0.07080
C2299       C  0.67485112  0.62794173  0.96108550     0.13790
C2300       C  0.64526506  0.60214284  0.93366593    -0.20570
C2301       C  0.62553202  0.61653558  0.90827478    -0.07090
C2302       C  0.63507059  0.65766278  0.91146289     0.13770
C2303       C  0.61630946  0.67606294  0.88501050    -0.23920
H2304       H  0.67194236  0.71452347  0.94102960     0.15060
H2305       H  0.63796421  0.57070667  0.93167956     0.15090
C2306       C  0.69597860  0.61167231  0.48691360    -0.23870
H2307       H  0.62944920  0.70913768  0.89032905     0.05300
H2308       H  0.58277259  0.66151096  0.89021733     0.08530
H2309       H  0.62224052  0.67212342  0.85405796     0.08530
H2310       H  0.68988035  0.61492516  0.51796244     0.08510
H2311       H  0.72958756  0.62881368  0.48174145     0.08510
H2312       H  0.68492100  0.57899272  0.48114272     0.05290
C2313       C  0.85077659  0.82311571  0.66386963    -0.20520
C2314       C  0.80992215  0.80347711  0.67746719    -0.07080
C2315       C  0.80142283  0.81685045  0.71308954     0.13790
C2316       C  0.83392569  0.84478656  0.73612524    -0.20570
C2317       C  0.87444502  0.86482823  0.72250686    -0.07090
C2318       C  0.88283570  0.85495796  0.68520498     0.13770
C2319       C  0.92524832  0.87751689  0.66801472    -0.23920
H2320       H  0.85771079  0.81382359  0.63638498     0.15060
H2321       H  0.82705536  0.85317409  0.76417634     0.15090
C2322       C  0.75840992  0.80550753  0.72563740    -0.23870
H2323       H  0.92687250  0.86437910  0.63957149     0.05300
H2324       H  0.94801989  0.87651816  0.68808605     0.08530
H2325       H  0.93377657  0.90972047  0.66313536     0.08530
H2326       H  0.74338014  0.77584181  0.74079158     0.08510
H2327       H  0.73980290  0.80489953  0.70008407     0.08510
H2328       H  0.75877812  0.82822617  0.74638240     0.05290
C2329       C  0.68424844  0.64302141  0.69098307    -0.20520
C2330       C  0.67791665  0.67436969  0.67775631    -0.07080
C2331       C  0.64396624  0.67714141  0.69140133     0.13790
C2332       C  0.61668717  0.64800881  0.71787023    -0.20570
C2333       C  0.62357371  0.61708060  0.73265022    -0.07090
C2334       C  0.65830004  0.61481518  0.71866946     0.13770
C2335       C  0.67023145  0.58450245  0.73359815    -0.23920
H2336       H  0.71109512  0.64194786  0.68089740     0.15060
H2337       H  0.59076085  0.65055917  0.72819050     0.15090
C2338       C  0.63782536  0.71208943  0.67952816    -0.23870
H2339       H  0.69818725  0.58779560  0.71912700     0.05300
H2340       H  0.64533753  0.55314268  0.72790507     0.08530
H2341       H  0.67697879  0.58908142  0.76532491     0.08530
H2342       H  0.63483932  0.71246548  0.64734496     0.08510
H2343       H  0.66462166  0.74115994  0.68909473     0.08510
H2344       H  0.60981784  0.70991054  0.69281461     0.05290
loop_ 
_geom_bond_atom_site_label_1 
_geom_bond_atom_site_label_2 
_geom_bond_distance 
_geom_bond_site_symmetry_2 
_ccdc_geom_bond_type 
C1            C2   1.401       .  A
C1            C6   1.392       .  A
C1          C279   1.479       .  S
C2            C3   1.418       .  A
C2            H7   1.079       .  S
C3            C4   1.421       .  A
C3           C14   1.513       .  S
C4            C5   1.408       .  A
C4            H8   1.077       .  S
C5            C6   1.398       .  A
C5          C263   1.497       .  S
C6            H9   1.082       .  S
C10          C11   1.395       .  A
C10         C308   1.399       .  A
C10         C247   1.485       .  S
C11          C12   1.404       .  A
C11          H16   1.080       .  S
C12         C306   1.412       .  A
C12         C234   1.509       .  S
C13          C14   1.419       .  A
C13         C305   1.412   1_554  A
C13          H17   1.077       .  S
C14          C15   1.418       .  A
C15         C303   1.399   1_554  A
C15          H18   1.078       .  S
C19          C20   1.406       .  A
C19          C24   1.399       .  A
C19         C199   1.486       .  S
C20          C21   1.413       .  A
C20          H25   1.081       .  S
C21          C22   1.410       .  A
C21          C30   1.495       .  S
C22          C23   1.394       .  A
C22          H26   1.081       .  S
C23          C24   1.397       .  A
C23         C218   1.481       .  S
C24          H27   1.083       .  S
C28          C33   1.396       .  A
C28         C322   1.400       .  A
C28         C170   1.478       .  S
C29          C30   1.411       .  A
C29         C321   1.400   1_554  A
C29          H34   1.081       .  S
C30          C31   1.412       .  A
C31         C325   1.399   1_554  A
C31          H35   1.079       .  S
C32          C33   1.403       .  A
C32         C324   1.399       .  A
C32         C186   1.492       .  S
C33          H36   1.084       .  S
C37          C38   1.407       .  A
C37          C42   1.398       .  A
C37        C1323   1.493       .  S
C38          C39   1.420       .  A
C38          H43   1.077       .  S
C39          C40   1.420       .  A
C39        C1220   1.514       .  S
C40          C41   1.399       .  A
C40          H44   1.070       .  S
C41          C42   1.399       .  A
C41        C1310   1.496       .  S
C42        H1217   1.084       .  S
H45        C1214   1.084       .  S
C46          C51   1.398       .  A
C46         C340   1.408       .  A
C46         C122   1.486       .  S
C47          C48   1.419       .  A
C47         C339   1.408   1_554  A
C47          H52   1.079       .  S
C48          C49   1.416       .  A
C48        C1211   1.514       .  S
C49         C343   1.399   1_554  A
C49          H53   1.077       .  S
C50          C51   1.398       .  A
C50         C342   1.399       .  A
C50         C106   1.486       .  S
C51          H54   1.084       .  S
O55          C82   1.263       .  A
O55        Mn667   2.060       .  S
C56         C250   1.492       .  S
C56          O89   1.269       .  A
C56          O86   1.269       .  A
O57         Mn64   2.173       .  S
O57         Mn75   2.124       .  S
O57         Mn79   2.159       .  S
O57        Mn667   2.109       .  S
O58          C68   1.277       .  A
O58         Mn92   2.116       .  S
O59          C82   1.274       .  A
O59         Mn75   2.121       .  S
O60          C87   1.254       .  A
O60         Mn79   2.120       .  S
O61         Mn81   1.969       .  S
O61       Mn1264   1.960       .  S
O61          C77   1.216       .  S
C62         C215   1.475       .  S
C62          O65   1.250       .  A
C62          O88   1.219       .  S
O63         Mn64   2.171       .  S
O63         Mn97   2.120       .  S
O63         Mn79   2.181       .  S
O63       Mn1255   2.112       .  S
Mn64         O69   2.120       .  S
Mn64       O1265   2.123       .  S
Mn64        O682   2.118       .  S
Mn64       O1828   2.176       .  S
O65       Mn1251   2.095   1_455  S
O66          C68   1.267       .  A
O66         Mn73   2.075       .  S
C67         C183   1.485       .  S
C67          O93   1.255       .  A
C67          O80   1.209       .  S
C68         C282   1.501       .  S
O69          C94   1.255       .  A
O70         Mn73   2.109       .  S
O70         Mn92   2.125       .  S
O70       Mn1822   2.176   1_445  S
O70       Mn1837   2.166   1_445  S
O71         Mn75   1.958       .  S
O71         Mn97   1.966       .  S
O71          C94   1.219       .  S
C72         C154   1.488       .  S
C72          O74   1.273       .  A
C72        O1270   1.267       .  A
Mn73         O86   2.104       .  S
Mn73        O674   1.968   1_545  S
Mn73        O666   1.939   1_545  S
O74         Mn97   2.111       .  S
Mn75         O91   2.091       .  S
Mn75         O85   1.954       .  S
O76          C78   1.272       .  A
O76        Mn667   2.094       .  S
C77         C135   1.490       .  S
C77          O95   1.257       .  A
C78         C167   1.496       .  S
C78          O91   1.269       .  A
Mn79       O1237   2.095       .  S
Mn79        O681   2.123       .  S
Mn79       O1828   2.166       .  S
O80         Mn83   1.945       .  S
O80        Mn659   1.939       .  S
Mn81        O641   2.060       .  S
Mn81        O662   2.094   1_545  S
Mn81        O643   2.109   1_545  S
Mn81         O99   1.941       .  S
C82         C202   1.485       .  S
Mn83         O90   2.089       .  S
Mn83         O98   2.078       .  S
Mn83       O1235   2.112   1_455  S
Mn83         O88   1.957       .  S
C84         C119   1.492       .  S
C84         O100   1.276       .  A
C84        O1262   1.271       .  A
O85         Mn97   1.958       .  S
O85          C87   1.215       .  S
C87         C266   1.482       .  S
O88        Mn659   1.968       .  S
O89         Mn92   2.088       .  S
O90        C1256   1.271   1_455  A
Mn92       O1233   1.960   1_455  S
Mn92       O1271   1.955   1_455  S
O93       Mn1236   2.123   1_455  S
C94         C231   1.495       .  S
O95        Mn665   2.123   1_545  S
O96         C101   1.253       .  A
O96        Mn650   2.118   1_545  S
Mn97        O100   2.111       .  S
O98        C1244   1.267   1_455  A
O99       Mn1264   1.955       .  S
O99         C101   1.214       .  S
C101        C103   1.479       .  S
C102        C103   1.406       .  A
C102        C107   1.396       .  A
C102        H109   1.084       .  S
C103        C104   1.411       .  A
C104        C105   1.407       .  A
C104       C1283   1.506       .  S
C105        C106   1.410       .  A
C105       H1575   1.084       .  S
C106        C107   1.413       .  A
C107        C108   1.509       .  S
C108        H112   1.111       .  S
C108        H113   1.110       .  S
C108        H114   1.108       .  S
H110       C1570   1.084   1_454  S
C111       C1276   1.506   1_455  S
C111        H115   1.109       .  S
C111       H1288   1.110       .  S
C111        H410   1.111       .  S
H116       C1283   1.110       .  S
H117        C404   1.111       .  S
C118        C119   1.407       .  A
C118        C123   1.404       .  A
C118        H125   1.085       .  S
C119        C120   1.415       .  A
C120        C121   1.405       .  A
C120        C127   1.499       .  S
C121        C122   1.402       .  A
C121        H419   1.084       .  S
C122        C123   1.416       .  A
C123        C124   1.508       .  S
C124        H128   1.110       .  S
C124        H129   1.111       .  S
C124       H1302   1.108       .  S
H126        C414   1.084       .  S
C127        H131   1.109       .  S
C127        H132   1.105       .  S
C127        H426   1.111       .  S
H130       C1296   1.108       .  S
H133        C420   1.111       .  S
C134        C139   1.412       .  A
C134       C1307   1.408   1_455  A
C134        H141   1.084       .  S
C135        C136   1.422       .  A
C135       C1306   1.408       .  A
C136        C137   1.394       .  A
C136        C143   1.508       .  S
C137        C138   1.399       .  A
C137        H142   1.084       .  S
C138       C1311   1.420       .  A
C138       C1213   1.496       .  S
C139       C1310   1.420   1_455  A
C139        C140   1.507       .  S
C140        H144   1.111       .  S
C140        H145   1.108       .  S
C140        H146   1.107       .  S
C143        H147   1.107       .  S
C143        H148   1.098       .  S
C143        H149   1.111       .  S
C150        C155   1.400       .  A
C150       C1323   1.404   1_455  A
C150        H157   1.084       .  S
C151        C152   1.418       .  A
C151       C1322   1.404       .  A
C151       C1209   1.493       .  S
C152        C153   1.410       .  A
C152        C159   1.507       .  S
C153        C154   1.406       .  A
C153        H158   1.082       .  S
C154       C1327   1.418       .  A
C155       C1326   1.418   1_455  A
C155        C156   1.512       .  S
C156        H160   1.111       .  S
C156        H161   1.111       .  S
C156        H162   1.104       .  S
C159        H163   1.110       .  S
C159        H164   1.108       .  S
C159        H165   1.111       .  S
C166        C171   1.404       .  A
C166        C753   1.409       .  A
C166        H173   1.082   1_565  S
C167        C168   1.423       .  A
C167        C752   1.409       .  A
C168        C169   1.402       .  A
C168        C175   1.504       .  S
C169        C170   1.397       .  A
C169        H174   1.085       .  S
C170        C757   1.411       .  A
C171        C756   1.411       .  A
C171        C172   1.508   1_565  S
C172        H176   1.110       .  S
C172        H177   1.109       .  S
C172        H178   1.111       .  S
C175        H179   1.103       .  S
C175        H180   1.110       .  S
C175        H181   1.111       .  S
C182        C183   1.403       .  A
C182        C187   1.408       .  A
C182        H189   1.084       .  S
C183        C184   1.424       .  A
C184        C185   1.395       .  A
C184        C191   1.514       .  S
C185        C186   1.401       .  A
C185        H776   1.084       .  S
C186        C187   1.422       .  A
C187        C481   1.509       .  S
C188        C480   1.509   1_554  S
C188        H192   1.111       .  S
C188        H193   1.106       .  S
C188        H194   1.110       .  S
H190        C771   1.084   1_545  S
C191        H196   1.110       .  S
C191        H781   1.101       .  S
C191        H783   1.111       .  S
H195        C777   1.101   1_545  S
H197        C777   1.111   1_545  S
C198        C199   1.406       .  A
C198        C203   1.405       .  A
C198        H205   1.084       .  S
C199        C200   1.415       .  A
C200        C201   1.398       .  A
C200        C207   1.508       .  S
C201        C202   1.405       .  A
C201        H206   1.085       .  S
C202        C203   1.412       .  A
C203        C204   1.498       .  S
C204        H208   1.111       .  S
C204        H209   1.099       .  S
C204        H210   1.111       .  S
C207        H211   1.111       .  S
C207        H213   1.111       .  S
C207        H798   1.108       .  S
H212        C793   1.108       .  S
C214        C215   1.403       .  A
C214        C219   1.393       .  A
C214        H221   1.080       .  S
C215        C216   1.413       .  A
C216        C217   1.406       .  A
C216        C223   1.507       .  S
C217        C218   1.408       .  A
C217        H222   1.084       .  S
C218        C219   1.411       .  A
C219        C220   1.509       .  S
C220        H224   1.108       .  S
C220        H225   1.110       .  S
C220        H226   1.107       .  S
C223        H228   1.110       .  S
C223        H229   1.111       .  S
C223        H813   1.109       .  S
H227        C809   1.109       .  S
C230        C231   1.406       .  A
C230        C235   1.396       .  A
C230        H237   1.085       .  S
C231        C232   1.417       .  A
C232        C233   1.412       .  A
C232        C239   1.509       .  S
C233        C234   1.414       .  A
C233        H531   1.082       .  S
C234        C235   1.422       .  A
C235        C236   1.512       .  S
C236        H240   1.109       .  S
C236        H241   1.106       .  S
C236        H242   1.110       .  S
H238        C526   1.082   1_554  S
C239        H243   1.111       .  S
C239        H244   1.107       .  S
C239        H538   1.111       .  S
H245        C532   1.111   1_554  S
C246        C247   1.401       .  A
C246        C251   1.400       .  A
C246        H253   1.084       .  S
C247        C248   1.410       .  A
C248        C249   1.410       .  A
C248        C548   1.505       .  S
C249        C250   1.412       .  A
C249        H254   1.084       .  S
C250        C251   1.419       .  A
C251        C252   1.510       .  S
C252        H256   1.111       .  S
C252        H257   1.110       .  S
C252        H258   1.111       .  S
C255        C541   1.505       .  S
C255        H259   1.110   1_556  S
C255        H260   1.110       .  S
C255        H261   1.111       .  S
C262        C263   1.412       .  A
C262        C267   1.412       .  A
C262        H269   1.083       .  S
C263        C264   1.419       .  A
C264        C265   1.395       .  A
C264        C271   1.513       .  S
C265        C266   1.402       .  A
C265        H270   1.084       .  S
C266        C267   1.413       .  A
C267        C268   1.506       .  S
C268        H272   1.111       .  S
C268        H273   1.109       .  S
C268        H274   1.110       .  S
C271        H275   1.107       .  S
C271        H276   1.110       .  S
C271        H277   1.111       .  S
C278        C279   1.395       .  A
C278        C283   1.403       .  A
C278        H285   1.085       .  S
C279        C280   1.409       .  A
C280        C281   1.407       .  A
C280        C287   1.506       .  S
C281        C282   1.411       .  A
C281        H286   1.083       .  S
C282        C283   1.430       .  A
C283        C284   1.511       .  S
C284        H288   1.111       .  S
C284        H289   1.106       .  S
C284        H290   1.110       .  S
C287        H291   1.110       .  S
C287        H292   1.110       .  S
C287        H293   1.111       .  S
C294        C295   1.401       .  A
C294        C299   1.392       .  A
C294        C572   1.479       .  S
C295        C296   1.418       .  A
C295        H300   1.079       .  S
C296        C297   1.421       .  A
C296        C307   1.513       .  S
C297        C298   1.408       .  A
C297        H301   1.077       .  S
C298        C299   1.398       .  A
C298        C556   1.497       .  S
C299        H302   1.082       .  S
C303        C304   1.395       .  A
C303        C540   1.485       .  S
C304        C305   1.404       .  A
C304        H309   1.080       .  S
C305        C527   1.509       .  S
C306        C307   1.419       .  A
C306        H310   1.077       .  S
C307        C308   1.418       .  A
C308        H311   1.078       .  S
C312        C313   1.406       .  A
C312        C317   1.399       .  A
C312        C492   1.486       .  S
C313        C314   1.413       .  A
C313        H318   1.081       .  S
C314        C315   1.410       .  A
C314        C323   1.495       .  S
C315        C316   1.394       .  A
C315        H319   1.081       .  S
C316        C317   1.397       .  A
C316        C511   1.481       .  S
C317        H320   1.083       .  S
C321        C326   1.396       .  A
C321        C463   1.478       .  S
C322        C323   1.411       .  A
C322        H327   1.081       .  S
C323        C324   1.412       .  A
C324        H328   1.079       .  S
C325        C326   1.403       .  A
C325        C479   1.492       .  S
C326        H329   1.084       .  S
C330        C331   1.407       .  A
C330        C335   1.398       .  A
C330       C1616   1.493       .  S
C331        C332   1.420       .  A
C331        H336   1.077       .  S
C332        C333   1.420       .  A
C332       C1513   1.514       .  S
C333        C334   1.399       .  A
C333        H337   1.070       .  S
C334        C335   1.399       .  A
C334       C1603   1.496       .  S
C335       H1510   1.084       .  S
H338       C1507   1.084       .  S
C339        C344   1.398       .  A
C339        C415   1.486       .  S
C340        C341   1.419       .  A
C340        H345   1.079       .  S
C341        C342   1.416       .  A
C341       C1504   1.514       .  S
C342        H346   1.077       .  S
C343        C344   1.398       .  A
C343        C399   1.486       .  S
C344        H347   1.084       .  S
O348        C375   1.263       .  A
O348       Mn960   2.060       .  S
C349        C543   1.492       .  S
C349        O382   1.269       .  A
C349        O379   1.269       .  A
O350       Mn357   2.173       .  S
O350       Mn368   2.124       .  S
O350       Mn372   2.159       .  S
O350       Mn960   2.109       .  S
O351        C361   1.277       .  A
O351       Mn385   2.116       .  S
O352        C375   1.274       .  A
O352       Mn368   2.121       .  S
O353        C380   1.254       .  A
O353       Mn372   2.120       .  S
O354      Mn1557   1.960       .  S
O354       Mn374   1.969       .  S
O354        C370   1.216       .  S
C355        C508   1.475       .  S
C355        O358   1.250       .  A
C355        O381   1.219       .  S
O356      Mn1548   2.112       .  S
O356       Mn357   2.171       .  S
O356       Mn390   2.120       .  S
O356       Mn372   2.181       .  S
Mn357      O1558   2.123       .  S
Mn357       O362   2.120       .  S
Mn357       O975   2.118       .  S
Mn357      O2121   2.176       .  S
O358      Mn1544   2.095   1_455  S
O359        C361   1.267       .  A
O359       Mn366   2.075       .  S
C360        C476   1.485       .  S
C360        O386   1.255       .  A
C360        O373   1.209       .  S
C361        C575   1.501       .  S
O362        C387   1.255       .  A
O363      Mn2115   2.176   1_445  S
O363       Mn366   2.109       .  S
O363       Mn385   2.125       .  S
O363      Mn2130   2.166   1_445  S
O364       Mn368   1.958       .  S
O364       Mn390   1.966       .  S
O364        C387   1.219       .  S
C365        C447   1.488       .  S
C365       O1563   1.267       .  A
C365        O367   1.273       .  A
Mn366       O379   2.104       .  S
Mn366       O967   1.968   1_545  S
Mn366       O959   1.939   1_545  S
O367       Mn390   2.111       .  S
Mn368       O384   2.091       .  S
Mn368       O378   1.954       .  S
O369        C371   1.272       .  A
O369       Mn960   2.094       .  S
C370        C428   1.490       .  S
C370        O388   1.257       .  A
C371        C460   1.496       .  S
C371        O384   1.269       .  A
Mn372      O1530   2.095       .  S
Mn372       O974   2.123       .  S
Mn372      O2121   2.166       .  S
O373       Mn952   1.939       .  S
O373       Mn376   1.945       .  S
Mn374       O934   2.060       .  S
Mn374       O955   2.094   1_545  S
Mn374       O936   2.109   1_545  S
Mn374       O392   1.941       .  S
C375        C495   1.485       .  S
Mn376       O383   2.089       .  S
Mn376       O391   2.078       .  S
Mn376      O1528   2.112   1_455  S
Mn376       O381   1.957       .  S
C377        C412   1.492       .  S
C377       O1555   1.271       .  A
C377        O393   1.276       .  A
O378       Mn390   1.958       .  S
O378        C380   1.215       .  S
C380        C559   1.482       .  S
O381       Mn952   1.968       .  S
O382       Mn385   2.088       .  S
O383       C1549   1.271   1_455  A
Mn385      O1526   1.960   1_455  S
Mn385      O1564   1.955   1_455  S
O386      Mn1529   2.123   1_455  S
C387        C524   1.495       .  S
O388       Mn958   2.123   1_545  S
O389        C394   1.253       .  A
O389       Mn943   2.118   1_545  S
Mn390       O393   2.111       .  S
O391       C1537   1.267   1_455  A
O392      Mn1557   1.955       .  S
O392        C394   1.214       .  S
C394        C396   1.479       .  S
C395        C396   1.406       .  A
C395        C400   1.396       .  A
C395        H402   1.084       .  S
C396        C397   1.411       .  A
C397        C398   1.407       .  A
C397       C1576   1.506       .  S
C398        C399   1.410       .  A
C398       H1282   1.084   1_556  S
C399        C400   1.413       .  A
C400        C401   1.509       .  S
C401        H405   1.111       .  S
C401        H406   1.110       .  S
C401        H407   1.108       .  S
H403       C1277   1.084   1_455  S
C404       C1569   1.506   1_455  S
C404        H408   1.109       .  S
C404       H1581   1.110       .  S
H409       C1576   1.110       .  S
C411        C412   1.407       .  A
C411        C416   1.404       .  A
C411        H418   1.085       .  S
C412        C413   1.415       .  A
C413        C414   1.405       .  A
C413        C420   1.499       .  S
C414        C415   1.402       .  A
C415        C416   1.416       .  A
C416        C417   1.508       .  S
C417        H421   1.110       .  S
C417        H422   1.111       .  S
C417       H1595   1.108       .  S
C420        H424   1.109       .  S
C420        H425   1.105       .  S
H423       C1589   1.108       .  S
C427       C1600   1.408   1_455  A
C427        C432   1.412       .  A
C427        H434   1.084       .  S
C428       C1599   1.408       .  A
C428        C429   1.422       .  A
C429        C430   1.394       .  A
C429        C436   1.508       .  S
C430        C431   1.399       .  A
C430        H435   1.084       .  S
C431       C1604   1.420       .  A
C431       C1506   1.496       .  S
C432       C1603   1.420   1_455  A
C432        C433   1.507       .  S
C433        H437   1.111       .  S
C433        H438   1.108       .  S
C433        H439   1.107       .  S
C436        H440   1.107       .  S
C436        H441   1.098       .  S
C436        H442   1.111       .  S
C443       C1616   1.404   1_455  A
C443        C448   1.400       .  A
C443        H450   1.084       .  S
C444       C1615   1.404       .  A
C444        C445   1.418       .  A
C444       C1502   1.493       .  S
C445        C446   1.410       .  A
C445        C452   1.507       .  S
C446        C447   1.406       .  A
C446        H451   1.082       .  S
C447       C1620   1.418       .  A
C448       C1619   1.418   1_455  A
C448        C449   1.512       .  S
C449        H453   1.111       .  S
C449        H454   1.111       .  S
C449        H455   1.104       .  S
C452        H456   1.110       .  S
C452        H457   1.108       .  S
C452        H458   1.111       .  S
C459       C1046   1.409       .  A
C459        C464   1.404       .  A
C459        H466   1.082   1_565  S
C460       C1045   1.409       .  A
C460        C461   1.423       .  A
C461        C462   1.402       .  A
C461        C468   1.504       .  S
C462        C463   1.397       .  A
C462        H467   1.085       .  S
C463       C1050   1.411       .  A
C464       C1049   1.411       .  A
C464        C465   1.508   1_565  S
C465        H469   1.110       .  S
C465        H470   1.109   1_556  S
C465        H471   1.111       .  S
C468        H472   1.103       .  S
C468        H473   1.110       .  S
C468        H474   1.111       .  S
C475        C476   1.403       .  A
C475        C480   1.408       .  A
C475        H482   1.084       .  S
C476        C477   1.424       .  A
C477        C478   1.395       .  A
C477        C484   1.514       .  S
C478        C479   1.401       .  A
C478       H1069   1.084       .  S
C479        C480   1.422       .  A
C481        H485   1.111       .  S
C481        H486   1.106       .  S
C481        H487   1.110       .  S
H483       C1064   1.084   1_545  S
C484       H1074   1.101       .  S
C484        H489   1.110       .  S
C484       H1076   1.111       .  S
H488       C1070   1.101   1_545  S
H490       C1070   1.111   1_545  S
C491        C492   1.406       .  A
C491        C496   1.405       .  A
C491        H498   1.084       .  S
C492        C493   1.415       .  A
C493        C494   1.398       .  A
C493        C500   1.508       .  S
C494        C495   1.405       .  A
C494        H499   1.085       .  S
C495        C496   1.412       .  A
C496        C497   1.498       .  S
C497        H501   1.111       .  S
C497        H502   1.099       .  S
C497        H503   1.111       .  S
C500        H504   1.111       .  S
C500       H1091   1.108       .  S
C500        H506   1.111       .  S
H505       C1086   1.108       .  S
C507        C508   1.403       .  A
C507        C512   1.393       .  A
C507        H514   1.080       .  S
C508        C509   1.413       .  A
C509        C510   1.406       .  A
C509        C516   1.507       .  S
C510        C511   1.408       .  A
C510        H515   1.084       .  S
C511        C512   1.411       .  A
C512        C513   1.509       .  S
C513        H517   1.108       .  S
C513        H518   1.110       .  S
C513        H519   1.107       .  S
C516       H1106   1.109       .  S
C516        H521   1.110       .  S
C516        H522   1.111       .  S
H520       C1102   1.109       .  S
C523        C524   1.406       .  A
C523        C528   1.396       .  A
C523        H530   1.085       .  S
C524        C525   1.417       .  A
C525        C526   1.412       .  A
C525        C532   1.509       .  S
C526        C527   1.414       .  A
C527        C528   1.422       .  A
C528        C529   1.512       .  S
C529        H533   1.109       .  S
C529        H534   1.106       .  S
C529        H535   1.110       .  S
C532        H536   1.111       .  S
C532        H537   1.107       .  S
C539        C540   1.401       .  A
C539        C544   1.400       .  A
C539        H546   1.084       .  S
C540        C541   1.410       .  A
C541        C542   1.410       .  A
C542        C543   1.412       .  A
C542        H547   1.084       .  S
C543        C544   1.419       .  A
C544        C545   1.510       .  S
C545        H549   1.111       .  S
C545        H550   1.110       .  S
C545        H551   1.111       .  S
C548        H552   1.110       .  S
C548        H553   1.110       .  S
C548        H554   1.111       .  S
C555        C556   1.412       .  A
C555        C560   1.412       .  A
C555        H562   1.083       .  S
C556        C557   1.419       .  A
C557        C558   1.395       .  A
C557        C564   1.513       .  S
C558        C559   1.402       .  A
C558        H563   1.084       .  S
C559        C560   1.413       .  A
C560        C561   1.506       .  S
C561        H565   1.111       .  S
C561        H566   1.109       .  S
C561        H567   1.110       .  S
C564        H568   1.107       .  S
C564        H569   1.110       .  S
C564        H570   1.111       .  S
C571        C572   1.395       .  A
C571        C576   1.403       .  A
C571        H578   1.085       .  S
C572        C573   1.409       .  A
C573        C574   1.407       .  A
C573        C580   1.506       .  S
C574        C575   1.411       .  A
C574        H579   1.083       .  S
C575        C576   1.430       .  A
C576        C577   1.511       .  S
C577        H581   1.111       .  S
C577        H582   1.106       .  S
C577        H583   1.110       .  S
C580        H584   1.110       .  S
C580        H585   1.110       .  S
C580        H586   1.111       .  S
C587        C588   1.401       .  A
C587        C592   1.392       .  A
C587        C865   1.479       .  S
C588        C589   1.418       .  A
C588        H593   1.079       .  S
C589        C590   1.421       .  A
C589        C600   1.513       .  S
C590        C591   1.408       .  A
C590        H594   1.077       .  S
C591        C592   1.398       .  A
C591        C849   1.497       .  S
C592        H595   1.082       .  S
C596        C597   1.395       .  A
C596        C894   1.399       .  A
C596        C833   1.485       .  S
C597        C598   1.404       .  A
C597        H602   1.080       .  S
C598        C892   1.412       .  A
C598        C820   1.509       .  S
C599        C891   1.412   1_554  A
C599        C600   1.419       .  A
C599        H603   1.077       .  S
C600        C601   1.418       .  A
C601        C889   1.399   1_554  A
C601        H604   1.078       .  S
C605        C606   1.406       .  A
C605        C610   1.399       .  A
C605        C785   1.486       .  S
C606        C607   1.413       .  A
C606        H611   1.081       .  S
C607        C608   1.410       .  A
C607        C616   1.495       .  S
C608        C609   1.394       .  A
C608        H612   1.081       .  S
C609        C610   1.397       .  A
C609        C804   1.481       .  S
C610        H613   1.083       .  S
C614        C908   1.400       .  A
C614        C619   1.396       .  A
C614        C756   1.478       .  S
C615        C907   1.400   1_554  A
C615        C616   1.411       .  A
C615        H620   1.081       .  S
C616        C617   1.412       .  A
C617        C911   1.399   1_554  A
C617        H621   1.079   1_565  S
C618        C910   1.399       .  A
C618        C619   1.403       .  A
C618        C772   1.492       .  S
C619        H622   1.084       .  S
C623        C624   1.407       .  A
C623        C628   1.398       .  A
C623       C1909   1.493       .  S
C624        C625   1.420       .  A
C624        H629   1.077       .  S
C625        C626   1.420       .  A
C625       C1806   1.514       .  S
C626        C627   1.399       .  A
C626        H630   1.070       .  S
C627        C628   1.399       .  A
C627       C1896   1.496       .  S
C628       H1803   1.084       .  S
H631       C1800   1.084       .  S
C632        C926   1.408       .  A
C632        C637   1.398       .  A
C632        C708   1.486       .  S
C633        C925   1.408   1_554  A
C633        C634   1.419       .  A
C633        H638   1.079       .  S
C634        C635   1.416       .  A
C634       C1797   1.514       .  S
C635        C929   1.399   1_554  A
C635        H639   1.077       .  S
C636        C928   1.399       .  A
C636        C637   1.398       .  A
C636        C692   1.486       .  S
C637        H640   1.084       .  S
O641        C668   1.263   1_545  A
C642        C836   1.492       .  S
C642        O675   1.269       .  A
C642        O672   1.269       .  A
O643       Mn650   2.173       .  S
O643       Mn661   2.124       .  S
O643       Mn665   2.159       .  S
O644        C654   1.277       .  A
O644       Mn678   2.116       .  S
O645        C668   1.274       .  A
O645       Mn661   2.121       .  S
O646        C673   1.254       .  A
O646       Mn665   2.120       .  S
O647      Mn1850   1.960       .  S
O647       Mn667   1.969       .  S
O647        C663   1.216       .  S
C648        C801   1.475       .  S
C648        O651   1.250       .  A
C648        O674   1.219       .  S
O649      Mn1841   2.112       .  S
O649       Mn650   2.171       .  S
O649       Mn683   2.120       .  S
O649       Mn665   2.181       .  S
Mn650      O1851   2.123       .  S
Mn650       O655   2.120       .  S
Mn650      O1242   2.176   1_565  S
O651      Mn1837   2.095   1_455  S
O652        C654   1.267       .  A
O652       Mn659   2.075       .  S
C653        C769   1.485       .  S
C653        O679   1.255       .  A
C653        O666   1.209       .  S
C654        C868   1.501       .  S
O655        C680   1.255       .  A
O656      Mn1236   2.176   1_455  S
O656       Mn659   2.109       .  S
O656       Mn678   2.125       .  S
O656      Mn1251   2.166   1_455  S
O657       Mn661   1.958       .  S
O657       Mn683   1.966       .  S
O657        C680   1.219       .  S
C658        C740   1.488       .  S
C658       O1856   1.267       .  A
C658        O660   1.273       .  A
Mn659       O672   2.104       .  S
O660       Mn683   2.111       .  S
Mn661       O677   2.091       .  S
Mn661       O671   1.954       .  S
O662        C664   1.272       .  A
C663        C721   1.490       .  S
C663        O681   1.257       .  A
C664        C753   1.496       .  S
C664        O677   1.269       .  A
Mn665      O1823   2.095       .  S
Mn665      O1242   2.166   1_565  S
O666       Mn669   1.945       .  S
Mn667       O685   1.941       .  S
C668        C788   1.485       .  S
Mn669       O676   2.089       .  S
Mn669       O684   2.078       .  S
Mn669      O1821   2.112   1_455  S
Mn669       O674   1.957       .  S
C670        C705   1.492       .  S
C670       O1848   1.271       .  A
C670        O686   1.276       .  A
O671       Mn683   1.958       .  S
O671        C673   1.215       .  S
C673        C852   1.482       .  S
O675       Mn678   2.088       .  S
O676       C1842   1.271   1_455  A
Mn678      O1819   1.960   1_455  S
Mn678      O1857   1.955   1_455  S
O679      Mn1822   2.123   1_455  S
C680        C817   1.495       .  S
O682        C687   1.253       .  A
Mn683       O686   2.111       .  S
O684       C1830   1.267   1_455  A
O685      Mn1850   1.955       .  S
O685        C687   1.214       .  S
C687        C689   1.479       .  S
C688        C689   1.406       .  A
C688        C693   1.396       .  A
C688        H695   1.084       .  S
C689        C690   1.411       .  A
C690        C691   1.407       .  A
C690       C1869   1.506       .  S
C691        C692   1.410       .  A
C691       H2161   1.084       .  S
C692        C693   1.413       .  A
C693        C694   1.509       .  S
C694        H698   1.111       .  S
C694        H699   1.110       .  S
C694        H700   1.108       .  S
H696       C2156   1.084   1_454  S
C697       C1862   1.506   1_455  S
C697        H701   1.109       .  S
C697       H1874   1.110       .  S
C697        H996   1.111       .  S
H702       C1869   1.110       .  S
H703        C990   1.111       .  S
C704        C705   1.407       .  A
C704        C709   1.404       .  A
C704        H711   1.085       .  S
C705        C706   1.415       .  A
C706        C707   1.405       .  A
C706        C713   1.499       .  S
C707        C708   1.402       .  A
C707       H1005   1.084       .  S
C708        C709   1.416       .  A
C709        C710   1.508       .  S
C710        H714   1.110       .  S
C710        H715   1.111       .  S
C710       H1888   1.108       .  S
H712       C1000   1.084       .  S
C713        H717   1.109       .  S
C713        H718   1.105       .  S
C713       H1012   1.111       .  S
H716       C1882   1.108       .  S
H719       C1006   1.111       .  S
C720       C1893   1.408   1_455  A
C720        C725   1.412       .  A
C720        H727   1.084       .  S
C721       C1892   1.408       .  A
C721        C722   1.422       .  A
C722        C723   1.394       .  A
C722        C729   1.508       .  S
C723        C724   1.399       .  A
C723        H728   1.084       .  S
C724       C1897   1.420       .  A
C724       C1799   1.496       .  S
C725       C1896   1.420   1_455  A
C725        C726   1.507       .  S
C726        H730   1.111       .  S
C726        H731   1.108       .  S
C726        H732   1.107       .  S
C729        H733   1.107       .  S
C729        H734   1.098       .  S
C729        H735   1.111       .  S
C736       C1909   1.404   1_455  A
C736        C741   1.400       .  A
C736        H743   1.084       .  S
C737       C1908   1.404       .  A
C737        C738   1.418       .  A
C737       C1795   1.493       .  S
C738        C739   1.410       .  A
C738        C745   1.507       .  S
C739        C740   1.406       .  A
C739        H744   1.082       .  S
C740       C1913   1.418       .  A
C741       C1912   1.418   1_455  A
C741        C742   1.512       .  S
C742        H746   1.111       .  S
C742        H747   1.111       .  S
C742        H748   1.104       .  S
C745        H749   1.110       .  S
C745        H750   1.108       .  S
C745        H751   1.111       .  S
C752        C757   1.404       .  A
C752        H759   1.082       .  S
C753        C754   1.423       .  A
C754        C755   1.402       .  A
C754        C761   1.504       .  S
C755        C756   1.397       .  A
C755        H760   1.085       .  S
C757        C758   1.508       .  S
C758        H762   1.110       .  S
C758        H763   1.109       .  S
C758        H764   1.111       .  S
C761        H765   1.103       .  S
C761        H766   1.110       .  S
C761        H767   1.111       .  S
C768        C769   1.403       .  A
C768        C773   1.408       .  A
C768        H775   1.084       .  S
C769        C770   1.424       .  A
C770        C771   1.395       .  A
C770        C777   1.514       .  S
C771        C772   1.401       .  A
C772        C773   1.422       .  A
C773       C1067   1.509       .  S
C774       C1066   1.509   1_554  S
C774        H778   1.111       .  S
C774        H779   1.106       .  S
C774        H780   1.110       .  S
C777        H782   1.110       .  S
C784        C785   1.406       .  A
C784        C789   1.405       .  A
C784        H791   1.084       .  S
C785        C786   1.415   1_565  A
C786        C787   1.398       .  A
C786        C793   1.508       .  S
C787        C788   1.405   1_545  A
C787        H792   1.085       .  S
C788        C789   1.412       .  A
C789        C790   1.498       .  S
C790        H794   1.111       .  S
C790        H795   1.099       .  S
C790        H796   1.111       .  S
C793        H797   1.111       .  S
C793        H799   1.111       .  S
C800        C801   1.403       .  A
C800        C805   1.393       .  A
C800        H807   1.080       .  S
C801        C802   1.413       .  A
C802        C803   1.406       .  A
C802        C809   1.507   1_565  S
C803        C804   1.408       .  A
C803        H808   1.084   1_565  S
C804        C805   1.411       .  A
C805        C806   1.509       .  S
C806        H810   1.108       .  S
C806        H811   1.110       .  S
C806        H812   1.107       .  S
C809        H814   1.110   1_545  S
C809        H815   1.111       .  S
C816        C817   1.406       .  A
C816        C821   1.396       .  A
C816        H823   1.085       .  S
C817        C818   1.417       .  A
C818        C819   1.412       .  A
C818        C825   1.509       .  S
C819        C820   1.414       .  A
C819       H1117   1.082       .  S
C820        C821   1.422       .  A
C821        C822   1.512       .  S
C822        H826   1.109       .  S
C822        H827   1.106       .  S
C822        H828   1.110       .  S
H824       C1112   1.082   1_554  S
C825        H829   1.111       .  S
C825        H830   1.107       .  S
C825       H1124   1.111       .  S
H831       C1118   1.111   1_554  S
C832        C833   1.401       .  A
C832        C837   1.400       .  A
C832        H839   1.084       .  S
C833        C834   1.410       .  A
C834        C835   1.410       .  A
C834       C1134   1.505       .  S
C835        C836   1.412       .  A
C835        H840   1.084       .  S
C836        C837   1.419       .  A
C837        C838   1.510       .  S
C838        H842   1.111       .  S
C838        H843   1.110       .  S
C838        H844   1.111       .  S
C841       C1127   1.505       .  S
C841        H845   1.110   1_556  S
C841        H846   1.110       .  S
C841        H847   1.111       .  S
C848        C849   1.412       .  A
C848        C853   1.412       .  A
C848        H855   1.083       .  S
C849        C850   1.419       .  A
C850        C851   1.395       .  A
C850        C857   1.513       .  S
C851        C852   1.402       .  A
C851        H856   1.084       .  S
C852        C853   1.413       .  A
C853        C854   1.506       .  S
C854        H858   1.111       .  S
C854        H859   1.109       .  S
C854        H860   1.110       .  S
C857        H861   1.107       .  S
C857        H862   1.110       .  S
C857        H863   1.111       .  S
C864        C865   1.395       .  A
C864        C869   1.403       .  A
C864        H871   1.085       .  S
C865        C866   1.409       .  A
C866        C867   1.407       .  A
C866        C873   1.506       .  S
C867        C868   1.411       .  A
C867        H872   1.083       .  S
C868        C869   1.430       .  A
C869        C870   1.511       .  S
C870        H874   1.111       .  S
C870        H875   1.106       .  S
C870        H876   1.110       .  S
C873        H877   1.110       .  S
C873        H878   1.110       .  S
C873        H879   1.111       .  S
C880        C881   1.401       .  A
C880        C885   1.392       .  A
C880       C1158   1.479       .  S
C881        C882   1.418       .  A
C881        H886   1.079       .  S
C882        C883   1.421       .  A
C882        C893   1.513       .  S
C883        C884   1.408       .  A
C883        H887   1.077       .  S
C884        C885   1.398       .  A
C884       C1142   1.497       .  S
C885        H888   1.082       .  S
C889        C890   1.395       .  A
C889       C1126   1.485       .  S
C890        C891   1.404       .  A
C890        H895   1.080       .  S
C891       C1113   1.509       .  S
C892        C893   1.419       .  A
C892        H896   1.077       .  S
C893        C894   1.418       .  A
C894        H897   1.078       .  S
C898        C899   1.406       .  A
C898        C903   1.399       .  A
C898       C1078   1.486       .  S
C899        C900   1.413       .  A
C899        H904   1.081       .  S
C900        C901   1.410       .  A
C900        C909   1.495       .  S
C901        C902   1.394       .  A
C901        H905   1.081       .  S
C902        C903   1.397       .  A
C902       C1097   1.481       .  S
C903        H906   1.083       .  S
C907        C912   1.396       .  A
C907       C1049   1.478       .  S
C908        C909   1.411       .  A
C908        H913   1.081       .  S
C909        C910   1.412       .  A
C910        H914   1.079   1_565  S
C911        C912   1.403       .  A
C911       C1065   1.492       .  S
C912        H915   1.084       .  S
C916        C917   1.407       .  A
C916        C921   1.398       .  A
C916       C2202   1.493       .  S
C917        C918   1.420       .  A
C917        H922   1.077       .  S
C918        C919   1.420       .  A
C918       C2099   1.514       .  S
C919        C920   1.399       .  A
C919        H923   1.070       .  S
C920        C921   1.399       .  A
C920       C2189   1.496       .  S
C921       H2096   1.084       .  S
H924       C2093   1.084       .  S
C925        C930   1.398       .  A
C925       C1001   1.486       .  S
C926        C927   1.419       .  A
C926        H931   1.079       .  S
C927        C928   1.416       .  A
C927       C2090   1.514       .  S
C928        H932   1.077       .  S
C929        C930   1.398       .  A
C929        C985   1.486       .  S
C930        H933   1.084       .  S
O934        C961   1.263   1_545  A
C935       C1129   1.492       .  S
C935        O968   1.269       .  A
C935        O965   1.269       .  A
O936       Mn943   2.173       .  S
O936       Mn954   2.124       .  S
O936       Mn958   2.159       .  S
O937        C947   1.277       .  A
O937       Mn971   2.116       .  S
O938        C961   1.274       .  A
O938       Mn954   2.121       .  S
O939        C966   1.254       .  A
O939       Mn958   2.120       .  S
O940      Mn2143   1.960       .  S
O940       Mn960   1.969       .  S
O940        C956   1.216       .  S
C941       C1094   1.475       .  S
C941        O944   1.250       .  A
C941        O967   1.219       .  S
O942      Mn2134   2.112       .  S
O942       Mn943   2.171       .  S
O942       Mn976   2.120       .  S
O942       Mn958   2.181       .  S
Mn943      O2144   2.123       .  S
Mn943       O948   2.120       .  S
Mn943      O1535   2.176   1_565  S
O944      Mn2130   2.095   1_455  S
O945        C947   1.267       .  A
O945       Mn952   2.075       .  S
C946       C1062   1.485       .  S
C946        O972   1.255       .  A
C946        O959   1.209       .  S
C947       C1161   1.501       .  S
O948        C973   1.255       .  A
O949      Mn1529   2.176   1_455  S
O949       Mn952   2.109       .  S
O949       Mn971   2.125       .  S
O949      Mn1544   2.166   1_455  S
O950       Mn954   1.958       .  S
O950       Mn976   1.966       .  S
O950        C973   1.219       .  S
C951       C1033   1.488       .  S
C951       O2149   1.267       .  A
C951        O953   1.273       .  A
Mn952       O965   2.104       .  S
O953       Mn976   2.111       .  S
Mn954       O970   2.091       .  S
Mn954       O964   1.954       .  S
O955        C957   1.272       .  A
C956       C1014   1.490       .  S
C956        O974   1.257       .  A
C957       C1046   1.496       .  S
C957        O970   1.269       .  A
Mn958      O2116   2.095       .  S
Mn958      O1535   2.166   1_565  S
O959       Mn962   1.945       .  S
Mn960       O978   1.941       .  S
C961       C1081   1.485       .  S
Mn962       O969   2.089       .  S
Mn962       O977   2.078       .  S
Mn962      O2114   2.112   1_455  S
Mn962       O967   1.957       .  S
C963        C998   1.492       .  S
C963       O2141   1.271       .  A
C963        O979   1.276       .  A
O964       Mn976   1.958       .  S
O964        C966   1.215       .  S
C966       C1145   1.482       .  S
O968       Mn971   2.088       .  S
O969       C2135   1.271   1_455  A
Mn971      O2112   1.960   1_455  S
Mn971      O2150   1.955   1_455  S
O972      Mn2115   2.123   1_455  S
C973       C1110   1.495       .  S
O975        C980   1.253       .  A
Mn976       O979   2.111       .  S
O977       C2123   1.267   1_455  A
O978      Mn2143   1.955       .  S
O978        C980   1.214       .  S
C980        C982   1.479       .  S
C981        C982   1.406       .  A
C981        C986   1.396       .  A
C981        H988   1.084       .  S
C982        C983   1.411       .  A
C983        C984   1.407       .  A
C983       C2162   1.506       .  S
C984        C985   1.410       .  A
C984       H1868   1.084   1_556  S
C985        C986   1.413       .  A
C986        C987   1.509       .  S
C987        H991   1.111       .  S
C987        H992   1.110       .  S
C987        H993   1.108       .  S
H989       C1863   1.084   1_455  S
C990       C2155   1.506   1_455  S
C990        H994   1.109       .  S
C990       H2167   1.110       .  S
H995       C2162   1.110       .  S
C997        C998   1.407       .  A
C997       C1002   1.404       .  A
C997       H1004   1.085       .  S
C998        C999   1.415       .  A
C999       C1000   1.405       .  A
C999       C1006   1.499       .  S
C1000      C1001   1.402       .  A
C1001      C1002   1.416       .  A
C1002      C1003   1.508       .  S
C1003      H1007   1.110       .  S
C1003      H1008   1.111       .  S
C1003      H2181   1.108       .  S
C1006      H1010   1.109       .  S
C1006      H1011   1.105       .  S
H1009      C2175   1.108       .  S
C1013      C2186   1.408   1_455  A
C1013      C1018   1.412       .  A
C1013      H1020   1.084       .  S
C1014      C2185   1.408       .  A
C1014      C1015   1.422       .  A
C1015      C1016   1.394       .  A
C1015      C1022   1.508       .  S
C1016      C1017   1.399       .  A
C1016      H1021   1.084       .  S
C1017      C2190   1.420       .  A
C1017      C2092   1.496       .  S
C1018      C2189   1.420   1_455  A
C1018      C1019   1.507       .  S
C1019      H1023   1.111       .  S
C1019      H1024   1.108       .  S
C1019      H1025   1.107       .  S
C1022      H1026   1.107       .  S
C1022      H1027   1.098       .  S
C1022      H1028   1.111       .  S
C1029      C2202   1.404   1_455  A
C1029      C1034   1.400       .  A
C1029      H1036   1.084       .  S
C1030      C2201   1.404       .  A
C1030      C1031   1.418       .  A
C1030      C2088   1.493       .  S
C1031      C1032   1.410       .  A
C1031      C1038   1.507       .  S
C1032      C1033   1.406       .  A
C1032      H1037   1.082       .  S
C1033      C2206   1.418       .  A
C1034      C2205   1.418   1_455  A
C1034      C1035   1.512       .  S
C1035      H1039   1.111       .  S
C1035      H1040   1.111       .  S
C1035      H1041   1.104       .  S
C1038      H1042   1.110       .  S
C1038      H1043   1.108       .  S
C1038      H1044   1.111       .  S
C1045      C1050   1.404       .  A
C1045      H1052   1.082       .  S
C1046      C1047   1.423       .  A
C1047      C1048   1.402       .  A
C1047      C1054   1.504       .  S
C1048      C1049   1.397       .  A
C1048      H1053   1.085       .  S
C1050      C1051   1.508       .  S
C1051      H1055   1.110       .  S
C1051      H1056   1.109   1_556  S
C1051      H1057   1.111       .  S
C1054      H1058   1.103       .  S
C1054      H1059   1.110       .  S
C1054      H1060   1.111       .  S
C1061      C1062   1.403       .  A
C1061      C1066   1.408       .  A
C1061      H1068   1.084       .  S
C1062      C1063   1.424       .  A
C1063      C1064   1.395       .  A
C1063      C1070   1.514       .  S
C1064      C1065   1.401       .  A
C1065      C1066   1.422       .  A
C1067      H1071   1.111       .  S
C1067      H1072   1.106       .  S
C1067      H1073   1.110       .  S
C1070      H1075   1.110       .  S
C1077      C1078   1.406       .  A
C1077      C1082   1.405       .  A
C1077      H1084   1.084       .  S
C1078      C1079   1.415   1_565  A
C1079      C1080   1.398       .  A
C1079      C1086   1.508       .  S
C1080      C1081   1.405   1_545  A
C1080      H1085   1.085       .  S
C1081      C1082   1.412       .  A
C1082      C1083   1.498       .  S
C1083      H1087   1.111       .  S
C1083      H1088   1.099       .  S
C1083      H1089   1.111       .  S
C1086      H1090   1.111       .  S
C1086      H1092   1.111       .  S
C1093      C1094   1.403       .  A
C1093      C1098   1.393       .  A
C1093      H1100   1.080       .  S
C1094      C1095   1.413       .  A
C1095      C1096   1.406       .  A
C1095      C1102   1.507   1_565  S
C1096      C1097   1.408       .  A
C1096      H1101   1.084   1_565  S
C1097      C1098   1.411       .  A
C1098      C1099   1.509       .  S
C1099      H1103   1.108       .  S
C1099      H1104   1.110       .  S
C1099      H1105   1.107       .  S
C1102      H1107   1.110   1_545  S
C1102      H1108   1.111       .  S
C1109      C1110   1.406       .  A
C1109      C1114   1.396       .  A
C1109      H1116   1.085       .  S
C1110      C1111   1.417       .  A
C1111      C1112   1.412       .  A
C1111      C1118   1.509       .  S
C1112      C1113   1.414       .  A
C1113      C1114   1.422       .  A
C1114      C1115   1.512       .  S
C1115      H1119   1.109       .  S
C1115      H1120   1.106       .  S
C1115      H1121   1.110       .  S
C1118      H1122   1.111       .  S
C1118      H1123   1.107       .  S
C1125      C1126   1.401       .  A
C1125      C1130   1.400       .  A
C1125      H1132   1.084       .  S
C1126      C1127   1.410       .  A
C1127      C1128   1.410       .  A
C1128      C1129   1.412       .  A
C1128      H1133   1.084       .  S
C1129      C1130   1.419       .  A
C1130      C1131   1.510       .  S
C1131      H1135   1.111       .  S
C1131      H1136   1.110       .  S
C1131      H1137   1.111       .  S
C1134      H1138   1.110       .  S
C1134      H1139   1.110       .  S
C1134      H1140   1.111       .  S
C1141      C1142   1.412       .  A
C1141      C1146   1.412       .  A
C1141      H1148   1.083       .  S
C1142      C1143   1.419       .  A
C1143      C1144   1.395       .  A
C1143      C1150   1.513       .  S
C1144      C1145   1.402       .  A
C1144      H1149   1.084       .  S
C1145      C1146   1.413       .  A
C1146      C1147   1.506       .  S
C1147      H1151   1.111       .  S
C1147      H1152   1.109       .  S
C1147      H1153   1.110       .  S
C1150      H1154   1.107       .  S
C1150      H1155   1.110       .  S
C1150      H1156   1.111       .  S
C1157      C1158   1.395       .  A
C1157      C1162   1.403       .  A
C1157      H1164   1.085       .  S
C1158      C1159   1.409       .  A
C1159      C1160   1.407       .  A
C1159      C1166   1.506       .  S
C1160      C1161   1.411       .  A
C1160      H1165   1.083       .  S
C1161      C1162   1.430       .  A
C1162      C1163   1.511       .  S
C1163      H1167   1.111       .  S
C1163      H1168   1.106       .  S
C1163      H1169   1.110       .  S
C1166      H1170   1.110       .  S
C1166      H1171   1.110       .  S
C1166      H1172   1.111       .  S
C1173      C1174   1.401       .  A
C1173      C1178   1.392       .  A
C1173      C1451   1.479       .  S
C1174      C1175   1.418       .  A
C1174      H1179   1.079       .  S
C1175      C1176   1.421       .  A
C1175      C1186   1.513       .  S
C1176      C1177   1.408       .  A
C1176      H1180   1.077       .  S
C1177      C1178   1.398       .  A
C1177      C1435   1.497       .  S
C1178      H1181   1.082       .  S
C1182      C1183   1.395       .  A
C1182      C1480   1.399       .  A
C1182      C1419   1.485       .  S
C1183      C1184   1.404       .  A
C1183      H1188   1.080       .  S
C1184      C1478   1.412       .  A
C1184      C1406   1.509       .  S
C1185      C1477   1.412   1_554  A
C1185      C1186   1.419       .  A
C1185      H1189   1.077       .  S
C1186      C1187   1.418       .  A
C1187      C1475   1.399   1_554  A
C1187      H1190   1.078       .  S
C1191      C1192   1.406       .  A
C1191      C1196   1.399       .  A
C1191      C1371   1.486       .  S
C1192      C1193   1.413       .  A
C1192      H1197   1.081       .  S
C1193      C1194   1.410       .  A
C1193      C1202   1.495       .  S
C1194      C1195   1.394       .  A
C1194      H1198   1.081       .  S
C1195      C1196   1.397       .  A
C1195      C1390   1.481       .  S
C1196      H1199   1.083       .  S
C1200      C1494   1.400       .  A
C1200      C1205   1.396       .  A
C1200      C1342   1.478       .  S
C1201      C1493   1.400   1_554  A
C1201      C1202   1.411       .  A
C1201      H1206   1.081       .  S
C1202      C1203   1.412       .  A
C1203      C1497   1.399   1_554  A
C1203      H1207   1.079       .  S
C1204      C1496   1.399       .  A
C1204      C1205   1.403       .  A
C1204      C1358   1.492       .  S
C1205      H1208   1.084       .  S
C1209      C1210   1.407       .  A
C1209      C1214   1.398       .  A
C1210      C1211   1.420       .  A
C1210      H1215   1.077       .  S
C1211      C1212   1.420       .  A
C1212      C1213   1.399       .  A
C1212      H1216   1.070       .  S
C1213      C1214   1.399       .  A
C1218      C1512   1.408       .  A
C1218      C1223   1.398       .  A
C1218      C1294   1.486       .  S
C1219      C1511   1.408   1_554  A
C1219      C1220   1.419       .  A
C1219      H1224   1.079   1_655  S
C1220      C1221   1.416       .  A
C1221      C1515   1.399   1_554  A
C1221      H1225   1.077       .  S
C1222      C1514   1.399       .  A
C1222      C1223   1.398       .  A
C1222      C1278   1.486       .  S
C1223      H1226   1.084       .  S
O1227      C1254   1.263       .  A
O1227     Mn1839   2.060       .  S
C1228      C1422   1.492       .  S
C1228      O1261   1.269       .  A
C1228      O1258   1.269       .  A
O1229     Mn1236   2.173       .  S
O1229     Mn1247   2.124       .  S
O1229     Mn1251   2.159       .  S
O1229     Mn1839   2.109       .  S
O1230      C1240   1.277       .  A
O1230     Mn1264   2.116       .  S
O1231      C1254   1.274       .  A
O1231     Mn1247   2.121       .  S
O1232      C1259   1.254       .  A
O1232     Mn1251   2.120       .  S
O1233     Mn1253   1.969       .  S
O1233      C1249   1.216       .  S
C1234      C1387   1.475       .  S
C1234      O1237   1.250       .  A
C1234      O1260   1.219       .  S
O1235     Mn1236   2.171       .  S
O1235     Mn1269   2.120       .  S
O1235     Mn1251   2.181       .  S
Mn1236     O1241   2.120       .  S
Mn1236     O1854   2.118       .  S
O1238      C1240   1.267       .  A
O1238     Mn1245   2.075       .  S
C1239      C1355   1.485       .  S
C1239      O1265   1.255       .  A
C1239      O1252   1.209       .  S
C1240      C1454   1.501       .  S
O1241      C1266   1.255       .  A
O1242     Mn1245   2.109       .  S
O1242     Mn1264   2.125       .  S
O1243     Mn1247   1.958       .  S
O1243     Mn1269   1.966       .  S
O1243      C1266   1.219       .  S
C1244      C1326   1.488       .  S
C1244      O1246   1.273       .  A
Mn1245     O1258   2.104       .  S
Mn1245     O1846   1.968   1_545  S
Mn1245     O1838   1.939   1_545  S
O1246     Mn1269   2.111       .  S
Mn1247     O1263   2.091       .  S
Mn1247     O1257   1.954       .  S
O1248      C1250   1.272       .  A
O1248     Mn1839   2.094       .  S
C1249      C1307   1.490       .  S
C1249      O1267   1.257       .  A
C1250      C1339   1.496       .  S
C1250      O1263   1.269       .  A
Mn1251     O1853   2.123       .  S
O1252     Mn1831   1.939       .  S
O1252     Mn1255   1.945       .  S
Mn1253     O1813   2.060       .  S
Mn1253     O1834   2.094   1_545  S
Mn1253     O1815   2.109   1_545  S
Mn1253     O1271   1.941       .  S
C1254      C1374   1.485       .  S
Mn1255     O1262   2.089       .  S
Mn1255     O1270   2.078       .  S
Mn1255     O1260   1.957       .  S
C1256      C1291   1.492       .  S
C1256      O1272   1.276       .  A
O1257     Mn1269   1.958       .  S
O1257      C1259   1.215       .  S
C1259      C1438   1.482       .  S
O1260     Mn1831   1.968       .  S
O1261     Mn1264   2.088       .  S
C1266      C1403   1.495       .  S
O1267     Mn1837   2.123   1_545  S
O1268      C1273   1.253       .  A
O1268     Mn1822   2.118   1_545  S
Mn1269     O1272   2.111       .  S
O1271      C1273   1.214       .  S
C1273      C1275   1.479       .  S
C1274      C1275   1.406       .  A
C1274      C1279   1.396       .  A
C1274      H1281   1.084       .  S
C1275      C1276   1.411       .  A
C1276      C1277   1.407       .  A
C1277      C1278   1.410       .  A
C1278      C1279   1.413       .  A
C1279      C1280   1.509       .  S
C1280      H1284   1.111       .  S
C1280      H1285   1.110       .  S
C1280      H1286   1.108       .  S
C1283      H1287   1.109       .  S
C1283      H1582   1.111       .  S
H1289      C1576   1.111       .  S
C1290      C1291   1.407   1_455  A
C1290      C1295   1.404       .  A
C1290      H1297   1.085       .  S
C1291      C1292   1.415       .  A
C1292      C1293   1.405       .  A
C1292      C1299   1.499       .  S
C1293      C1294   1.402       .  A
C1293      H1591   1.084       .  S
C1294      C1295   1.416   1_655  A
C1295      C1296   1.508       .  S
C1296      H1300   1.110       .  S
C1296      H1301   1.111       .  S
H1298      C1586   1.084       .  S
C1299      H1303   1.109       .  S
C1299      H1304   1.105       .  S
C1299      H1598   1.111       .  S
H1305      C1592   1.111       .  S
C1306      C1311   1.412       .  A
C1306      H1313   1.084       .  S
C1307      C1308   1.422       .  A
C1308      C1309   1.394       .  A
C1308      C1315   1.508       .  S
C1309      C1310   1.399       .  A
C1309      H1314   1.084       .  S
C1311      C1312   1.507       .  S
C1312      H1316   1.111       .  S
C1312      H1317   1.108       .  S
C1312      H1318   1.107       .  S
C1315      H1319   1.107       .  S
C1315      H1320   1.098       .  S
C1315      H1321   1.111       .  S
C1322      C1327   1.400       .  A
C1322      H1329   1.084       .  S
C1323      C1324   1.418       .  A
C1324      C1325   1.410       .  A
C1324      C1331   1.507       .  S
C1325      C1326   1.406       .  A
C1325      H1330   1.082       .  S
C1327      C1328   1.512       .  S
C1328      H1332   1.111       .  S
C1328      H1333   1.111       .  S
C1328      H1334   1.104       .  S
C1331      H1335   1.110       .  S
C1331      H1336   1.108       .  S
C1331      H1337   1.111       .  S
C1338      C1925   1.409       .  A
C1338      C1343   1.404       .  A
C1338      H1345   1.082   1_565  S
C1339      C1924   1.409       .  A
C1339      C1340   1.423       .  A
C1340      C1341   1.402       .  A
C1340      C1347   1.504       .  S
C1341      C1342   1.397       .  A
C1341      H1346   1.085       .  S
C1342      C1929   1.411       .  A
C1343      C1928   1.411       .  A
C1343      C1344   1.508   1_565  S
C1344      H1348   1.110       .  S
C1344      H1349   1.109       .  S
C1344      H1350   1.111       .  S
C1347      H1351   1.103       .  S
C1347      H1352   1.110       .  S
C1347      H1353   1.111       .  S
C1354      C1355   1.403       .  A
C1354      C1359   1.408       .  A
C1354      H1361   1.084       .  S
C1355      C1356   1.424       .  A
C1356      C1357   1.395       .  A
C1356      C1363   1.514       .  S
C1357      C1358   1.401       .  A
C1357      H1948   1.084       .  S
C1358      C1359   1.422       .  A
C1359      C1653   1.509       .  S
C1360      C1652   1.509   1_554  S
C1360      H1364   1.111       .  S
C1360      H1365   1.106       .  S
C1360      H1366   1.110       .  S
H1362      C1943   1.084   1_545  S
C1363      H1953   1.101       .  S
C1363      H1368   1.110       .  S
C1363      H1955   1.111       .  S
H1367      C1949   1.101   1_545  S
H1369      C1949   1.111   1_545  S
C1370      C1371   1.406       .  A
C1370      C1375   1.405       .  A
C1370      H1377   1.084       .  S
C1371      C1372   1.415       .  A
C1372      C1373   1.398       .  A
C1372      C1379   1.508       .  S
C1373      C1374   1.405       .  A
C1373      H1378   1.085       .  S
C1374      C1375   1.412       .  A
C1375      C1376   1.498       .  S
C1376      H1380   1.111       .  S
C1376      H1381   1.099       .  S
C1376      H1382   1.111       .  S
C1379      H1383   1.111       .  S
C1379      H1970   1.108       .  S
C1379      H1385   1.111       .  S
H1384      C1965   1.108       .  S
C1386      C1387   1.403       .  A
C1386      C1391   1.393       .  A
C1386      H1393   1.080       .  S
C1387      C1388   1.413       .  A
C1388      C1389   1.406       .  A
C1388      C1395   1.507       .  S
C1389      C1390   1.408       .  A
C1389      H1394   1.084       .  S
C1390      C1391   1.411       .  A
C1391      C1392   1.509       .  S
C1392      H1396   1.108       .  S
C1392      H1397   1.110       .  S
C1392      H1398   1.107       .  S
C1395      H1985   1.109       .  S
C1395      H1400   1.110       .  S
C1395      H1401   1.111       .  S
H1399      C1981   1.109       .  S
C1402      C1403   1.406       .  A
C1402      C1407   1.396       .  A
C1402      H1409   1.085       .  S
C1403      C1404   1.417       .  A
C1404      C1405   1.412       .  A
C1404      C1411   1.509       .  S
C1405      C1406   1.414       .  A
C1405      H1703   1.082       .  S
C1406      C1407   1.422       .  A
C1407      C1408   1.512       .  S
C1408      H1412   1.109       .  S
C1408      H1413   1.106       .  S
C1408      H1414   1.110       .  S
H1410      C1698   1.082   1_554  S
C1411      H1415   1.111       .  S
C1411      H1416   1.107       .  S
C1411      H1710   1.111       .  S
H1417      C1704   1.111   1_554  S
C1418      C1419   1.401       .  A
C1418      C1423   1.400       .  A
C1418      H1425   1.084       .  S
C1419      C1420   1.410       .  A
C1420      C1421   1.410       .  A
C1420      C1720   1.505       .  S
C1421      C1422   1.412       .  A
C1421      H1426   1.084       .  S
C1422      C1423   1.419       .  A
C1423      C1424   1.510       .  S
C1424      H1428   1.111       .  S
C1424      H1429   1.110       .  S
C1424      H1430   1.111       .  S
C1427      C1713   1.505       .  S
C1427      H1431   1.110   1_556  S
C1427      H1432   1.110       .  S
C1427      H1433   1.111       .  S
C1434      C1435   1.412       .  A
C1434      C1439   1.412       .  A
C1434      H1441   1.083       .  S
C1435      C1436   1.419       .  A
C1436      C1437   1.395       .  A
C1436      C1443   1.513       .  S
C1437      C1438   1.402       .  A
C1437      H1442   1.084       .  S
C1438      C1439   1.413       .  A
C1439      C1440   1.506       .  S
C1440      H1444   1.111       .  S
C1440      H1445   1.109       .  S
C1440      H1446   1.110       .  S
C1443      H1447   1.107       .  S
C1443      H1448   1.110       .  S
C1443      H1449   1.111       .  S
C1450      C1451   1.395       .  A
C1450      C1455   1.403       .  A
C1450      H1457   1.085       .  S
C1451      C1452   1.409       .  A
C1452      C1453   1.407       .  A
C1452      C1459   1.506       .  S
C1453      C1454   1.411       .  A
C1453      H1458   1.083       .  S
C1454      C1455   1.430       .  A
C1455      C1456   1.511       .  S
C1456      H1460   1.111       .  S
C1456      H1461   1.106       .  S
C1456      H1462   1.110       .  S
C1459      H1463   1.110       .  S
C1459      H1464   1.110       .  S
C1459      H1465   1.111       .  S
C1466      C1467   1.401       .  A
C1466      C1471   1.392       .  A
C1466      C1744   1.479       .  S
C1467      C1468   1.418       .  A
C1467      H1472   1.079       .  S
C1468      C1469   1.421       .  A
C1468      C1479   1.513       .  S
C1469      C1470   1.408       .  A
C1469      H1473   1.077       .  S
C1470      C1471   1.398       .  A
C1470      C1728   1.497       .  S
C1471      H1474   1.082       .  S
C1475      C1476   1.395       .  A
C1475      C1712   1.485       .  S
C1476      C1477   1.404       .  A
C1476      H1481   1.080       .  S
C1477      C1699   1.509       .  S
C1478      C1479   1.419       .  A
C1478      H1482   1.077       .  S
C1479      C1480   1.418       .  A
C1480      H1483   1.078       .  S
C1484      C1485   1.406       .  A
C1484      C1489   1.399       .  A
C1484      C1664   1.486       .  S
C1485      C1486   1.413       .  A
C1485      H1490   1.081       .  S
C1486      C1487   1.410       .  A
C1486      C1495   1.495       .  S
C1487      C1488   1.394       .  A
C1487      H1491   1.081       .  S
C1488      C1489   1.397       .  A
C1488      C1683   1.481       .  S
C1489      H1492   1.083       .  S
C1493      C1498   1.396       .  A
C1493      C1635   1.478       .  S
C1494      C1495   1.411       .  A
C1494      H1499   1.081       .  S
C1495      C1496   1.412       .  A
C1496      H1500   1.079       .  S
C1497      C1498   1.403       .  A
C1497      C1651   1.492       .  S
C1498      H1501   1.084       .  S
C1502      C1503   1.407       .  A
C1502      C1507   1.398       .  A
C1503      C1504   1.420       .  A
C1503      H1508   1.077       .  S
C1504      C1505   1.420       .  A
C1505      C1506   1.399       .  A
C1505      H1509   1.070       .  S
C1506      C1507   1.399       .  A
C1511      C1516   1.398       .  A
C1511      C1587   1.486       .  S
C1512      C1513   1.419       .  A
C1512      H1517   1.079   1_655  S
C1513      C1514   1.416       .  A
C1514      H1518   1.077       .  S
C1515      C1516   1.398       .  A
C1515      C1571   1.486       .  S
C1516      H1519   1.084       .  S
O1520      C1547   1.263       .  A
O1520     Mn2132   2.060       .  S
C1521      C1715   1.492       .  S
C1521      O1554   1.269       .  A
C1521      O1551   1.269       .  A
O1522     Mn1529   2.173       .  S
O1522     Mn1540   2.124       .  S
O1522     Mn1544   2.159       .  S
O1522     Mn2132   2.109       .  S
O1523      C1533   1.277       .  A
O1523     Mn1557   2.116       .  S
O1524      C1547   1.274       .  A
O1524     Mn1540   2.121       .  S
O1525      C1552   1.254       .  A
O1525     Mn1544   2.120       .  S
O1526     Mn1546   1.969       .  S
O1526      C1542   1.216       .  S
C1527      C1680   1.475       .  S
C1527      O1530   1.250       .  A
C1527      O1553   1.219       .  S
O1528     Mn1529   2.171       .  S
O1528     Mn1562   2.120       .  S
O1528     Mn1544   2.181       .  S
Mn1529     O1534   2.120       .  S
Mn1529     O2147   2.118       .  S
O1531      C1533   1.267       .  A
O1531     Mn1538   2.075       .  S
C1532      C1648   1.485       .  S
C1532      O1558   1.255       .  A
C1532      O1545   1.209       .  S
C1533      C1747   1.501       .  S
O1534      C1559   1.255       .  A
O1535     Mn1538   2.109       .  S
O1535     Mn1557   2.125       .  S
O1536     Mn1540   1.958       .  S
O1536     Mn1562   1.966       .  S
O1536      C1559   1.219       .  S
C1537      C1619   1.488       .  S
C1537      O1539   1.273       .  A
Mn1538     O1551   2.104       .  S
Mn1538     O2139   1.968   1_545  S
Mn1538     O2131   1.939   1_545  S
O1539     Mn1562   2.111       .  S
Mn1540     O1556   2.091       .  S
Mn1540     O1550   1.954       .  S
O1541      C1543   1.272       .  A
O1541     Mn2132   2.094       .  S
C1542      C1600   1.490       .  S
C1542      O1560   1.257       .  A
C1543      C1632   1.496       .  S
C1543      O1556   1.269       .  A
Mn1544     O2146   2.123       .  S
O1545     Mn2124   1.939       .  S
O1545     Mn1548   1.945       .  S
Mn1546     O2106   2.060       .  S
Mn1546     O2127   2.094   1_545  S
Mn1546     O2108   2.109   1_545  S
Mn1546     O1564   1.941       .  S
C1547      C1667   1.485       .  S
Mn1548     O1555   2.089       .  S
Mn1548     O1563   2.078       .  S
Mn1548     O1553   1.957       .  S
C1549      C1584   1.492       .  S
C1549      O1565   1.276       .  A
O1550     Mn1562   1.958       .  S
O1550      C1552   1.215       .  S
C1552      C1731   1.482       .  S
O1553     Mn2124   1.968       .  S
O1554     Mn1557   2.088       .  S
C1559      C1696   1.495       .  S
O1560     Mn2130   2.123   1_545  S
O1561      C1566   1.253       .  A
O1561     Mn2115   2.118   1_545  S
Mn1562     O1565   2.111       .  S
O1564      C1566   1.214       .  S
C1566      C1568   1.479       .  S
C1567      C1568   1.406       .  A
C1567      C1572   1.396       .  A
C1567      H1574   1.084       .  S
C1568      C1569   1.411       .  A
C1569      C1570   1.407       .  A
C1570      C1571   1.410       .  A
C1571      C1572   1.413       .  A
C1572      C1573   1.509       .  S
C1573      H1577   1.111       .  S
C1573      H1578   1.110       .  S
C1573      H1579   1.108       .  S
C1576      H1580   1.109       .  S
C1583      C1584   1.407   1_455  A
C1583      C1588   1.404       .  A
C1583      H1590   1.085       .  S
C1584      C1585   1.415       .  A
C1585      C1586   1.405       .  A
C1585      C1592   1.499       .  S
C1586      C1587   1.402       .  A
C1587      C1588   1.416   1_655  A
C1588      C1589   1.508       .  S
C1589      H1593   1.110       .  S
C1589      H1594   1.111       .  S
C1592      H1596   1.109       .  S
C1592      H1597   1.105       .  S
C1599      C1604   1.412       .  A
C1599      H1606   1.084       .  S
C1600      C1601   1.422       .  A
C1601      C1602   1.394       .  A
C1601      C1608   1.508       .  S
C1602      C1603   1.399       .  A
C1602      H1607   1.084       .  S
C1604      C1605   1.507       .  S
C1605      H1609   1.111       .  S
C1605      H1610   1.108       .  S
C1605      H1611   1.107       .  S
C1608      H1612   1.107       .  S
C1608      H1613   1.098       .  S
C1608      H1614   1.111       .  S
C1615      C1620   1.400       .  A
C1615      H1622   1.084       .  S
C1616      C1617   1.418       .  A
C1617      C1618   1.410       .  A
C1617      C1624   1.507       .  S
C1618      C1619   1.406       .  A
C1618      H1623   1.082       .  S
C1620      C1621   1.512       .  S
C1621      H1625   1.111       .  S
C1621      H1626   1.111       .  S
C1621      H1627   1.104       .  S
C1624      H1628   1.110       .  S
C1624      H1629   1.108       .  S
C1624      H1630   1.111       .  S
C1631      C2218   1.409       .  A
C1631      C1636   1.404       .  A
C1631      H1638   1.082   1_565  S
C1632      C2217   1.409       .  A
C1632      C1633   1.423       .  A
C1633      C1634   1.402       .  A
C1633      C1640   1.504       .  S
C1634      C1635   1.397       .  A
C1634      H1639   1.085       .  S
C1635      C2222   1.411       .  A
C1636      C2221   1.411       .  A
C1636      C1637   1.508   1_565  S
C1637      H1641   1.110       .  S
C1637      H1642   1.109   1_556  S
C1637      H1643   1.111       .  S
C1640      H1644   1.103       .  S
C1640      H1645   1.110       .  S
C1640      H1646   1.111       .  S
C1647      C1648   1.403       .  A
C1647      C1652   1.408       .  A
C1647      H1654   1.084       .  S
C1648      C1649   1.424       .  A
C1649      C1650   1.395       .  A
C1649      C1656   1.514       .  S
C1650      C1651   1.401       .  A
C1650      H2241   1.084       .  S
C1651      C1652   1.422       .  A
C1653      H1657   1.111       .  S
C1653      H1658   1.106       .  S
C1653      H1659   1.110       .  S
H1655      C2236   1.084   1_545  S
C1656      H2246   1.101       .  S
C1656      H1661   1.110       .  S
C1656      H2248   1.111       .  S
H1660      C2242   1.101   1_545  S
H1662      C2242   1.111   1_545  S
C1663      C1664   1.406       .  A
C1663      C1668   1.405       .  A
C1663      H1670   1.084       .  S
C1664      C1665   1.415       .  A
C1665      C1666   1.398       .  A
C1665      C1672   1.508       .  S
C1666      C1667   1.405       .  A
C1666      H1671   1.085       .  S
C1667      C1668   1.412       .  A
C1668      C1669   1.498       .  S
C1669      H1673   1.111       .  S
C1669      H1674   1.099       .  S
C1669      H1675   1.111       .  S
C1672      H1676   1.111       .  S
C1672      H2263   1.108       .  S
C1672      H1678   1.111       .  S
H1677      C2258   1.108       .  S
C1679      C1680   1.403       .  A
C1679      C1684   1.393       .  A
C1679      H1686   1.080       .  S
C1680      C1681   1.413       .  A
C1681      C1682   1.406       .  A
C1681      C1688   1.507       .  S
C1682      C1683   1.408       .  A
C1682      H1687   1.084       .  S
C1683      C1684   1.411       .  A
C1684      C1685   1.509       .  S
C1685      H1689   1.108       .  S
C1685      H1690   1.110       .  S
C1685      H1691   1.107       .  S
C1688      H2278   1.109       .  S
C1688      H1693   1.110       .  S
C1688      H1694   1.111       .  S
H1692      C2274   1.109       .  S
C1695      C1696   1.406       .  A
C1695      C1700   1.396       .  A
C1695      H1702   1.085       .  S
C1696      C1697   1.417       .  A
C1697      C1698   1.412       .  A
C1697      C1704   1.509       .  S
C1698      C1699   1.414       .  A
C1699      C1700   1.422       .  A
C1700      C1701   1.512       .  S
C1701      H1705   1.109       .  S
C1701      H1706   1.106       .  S
C1701      H1707   1.110       .  S
C1704      H1708   1.111       .  S
C1704      H1709   1.107       .  S
C1711      C1712   1.401       .  A
C1711      C1716   1.400       .  A
C1711      H1718   1.084       .  S
C1712      C1713   1.410       .  A
C1713      C1714   1.410       .  A
C1714      C1715   1.412       .  A
C1714      H1719   1.084       .  S
C1715      C1716   1.419       .  A
C1716      C1717   1.510       .  S
C1717      H1721   1.111       .  S
C1717      H1722   1.110       .  S
C1717      H1723   1.111       .  S
C1720      H1724   1.110       .  S
C1720      H1725   1.110       .  S
C1720      H1726   1.111       .  S
C1727      C1728   1.412       .  A
C1727      C1732   1.412       .  A
C1727      H1734   1.083       .  S
C1728      C1729   1.419       .  A
C1729      C1730   1.395       .  A
C1729      C1736   1.513       .  S
C1730      C1731   1.402       .  A
C1730      H1735   1.084       .  S
C1731      C1732   1.413       .  A
C1732      C1733   1.506       .  S
C1733      H1737   1.111       .  S
C1733      H1738   1.109       .  S
C1733      H1739   1.110       .  S
C1736      H1740   1.107       .  S
C1736      H1741   1.110       .  S
C1736      H1742   1.111       .  S
C1743      C1744   1.395       .  A
C1743      C1748   1.403       .  A
C1743      H1750   1.085       .  S
C1744      C1745   1.409       .  A
C1745      C1746   1.407       .  A
C1745      C1752   1.506       .  S
C1746      C1747   1.411       .  A
C1746      H1751   1.083       .  S
C1747      C1748   1.430       .  A
C1748      C1749   1.511       .  S
C1749      H1753   1.111       .  S
C1749      H1754   1.106       .  S
C1749      H1755   1.110       .  S
C1752      H1756   1.110       .  S
C1752      H1757   1.110       .  S
C1752      H1758   1.111       .  S
C1759      C1760   1.401       .  A
C1759      C1764   1.392       .  A
C1759      C2037   1.479       .  S
C1760      C1761   1.418       .  A
C1760      H1765   1.079       .  S
C1761      C1762   1.421       .  A
C1761      C1772   1.513       .  S
C1762      C1763   1.408       .  A
C1762      H1766   1.077       .  S
C1763      C1764   1.398       .  A
C1763      C2021   1.497       .  S
C1764      H1767   1.082       .  S
C1768      C1769   1.395       .  A
C1768      C2066   1.399       .  A
C1768      C2005   1.485       .  S
C1769      C1770   1.404       .  A
C1769      H1774   1.080       .  S
C1770      C2064   1.412       .  A
C1770      C1992   1.509       .  S
C1771      C2063   1.412   1_554  A
C1771      C1772   1.419       .  A
C1771      H1775   1.077       .  S
C1772      C1773   1.418       .  A
C1773      C2061   1.399   1_554  A
C1773      H1776   1.078       .  S
C1777      C1778   1.406       .  A
C1777      C1782   1.399       .  A
C1777      C1957   1.486       .  S
C1778      C1779   1.413       .  A
C1778      H1783   1.081       .  S
C1779      C1780   1.410       .  A
C1779      C1788   1.495       .  S
C1780      C1781   1.394       .  A
C1780      H1784   1.081       .  S
C1781      C1782   1.397       .  A
C1781      C1976   1.481       .  S
C1782      H1785   1.083       .  S
C1786      C2080   1.400       .  A
C1786      C1791   1.396       .  A
C1786      C1928   1.478       .  S
C1787      C2079   1.400   1_554  A
C1787      C1788   1.411       .  A
C1787      H1792   1.081       .  S
C1788      C1789   1.412       .  A
C1789      C2083   1.399   1_554  A
C1789      H1793   1.079   1_565  S
C1790      C2082   1.399       .  A
C1790      C1791   1.403       .  A
C1790      C1944   1.492       .  S
C1791      H1794   1.084       .  S
C1795      C1796   1.407       .  A
C1795      C1800   1.398       .  A
C1796      C1797   1.420       .  A
C1796      H1801   1.077       .  S
C1797      C1798   1.420       .  A
C1798      C1799   1.399       .  A
C1798      H1802   1.070       .  S
C1799      C1800   1.399       .  A
C1804      C2098   1.408       .  A
C1804      C1809   1.398       .  A
C1804      C1880   1.486       .  S
C1805      C2097   1.408   1_554  A
C1805      C1806   1.419       .  A
C1805      H1810   1.079   1_655  S
C1806      C1807   1.416       .  A
C1807      C2101   1.399   1_554  A
C1807      H1811   1.077       .  S
C1808      C2100   1.399       .  A
C1808      C1809   1.398       .  A
C1808      C1864   1.486       .  S
C1809      H1812   1.084       .  S
O1813      C1840   1.263   1_545  A
C1814      C2008   1.492       .  S
C1814      O1847   1.269       .  A
C1814      O1844   1.269       .  A
O1815     Mn1822   2.173       .  S
O1815     Mn1833   2.124       .  S
O1815     Mn1837   2.159       .  S
O1816      C1826   1.277       .  A
O1816     Mn1850   2.116       .  S
O1817      C1840   1.274       .  A
O1817     Mn1833   2.121       .  S
O1818      C1845   1.254       .  A
O1818     Mn1837   2.120       .  S
O1819     Mn1839   1.969       .  S
O1819      C1835   1.216       .  S
C1820      C1973   1.475       .  S
C1820      O1823   1.250       .  A
C1820      O1846   1.219       .  S
O1821     Mn1822   2.171       .  S
O1821     Mn1855   2.120       .  S
O1821     Mn1837   2.181       .  S
Mn1822     O1827   2.120       .  S
O1824      C1826   1.267       .  A
O1824     Mn1831   2.075       .  S
C1825      C1941   1.485       .  S
C1825      O1851   1.255       .  A
C1825      O1838   1.209       .  S
C1826      C2040   1.501       .  S
O1827      C1852   1.255       .  A
O1828     Mn1831   2.109       .  S
O1828     Mn1850   2.125       .  S
O1829     Mn1833   1.958       .  S
O1829     Mn1855   1.966       .  S
O1829      C1852   1.219       .  S
C1830      C1912   1.488       .  S
C1830      O1832   1.273       .  A
Mn1831     O1844   2.104       .  S
O1832     Mn1855   2.111       .  S
Mn1833     O1849   2.091       .  S
Mn1833     O1843   1.954       .  S
O1834      C1836   1.272       .  A
C1835      C1893   1.490       .  S
C1835      O1853   1.257       .  A
C1836      C1925   1.496       .  S
C1836      O1849   1.269       .  A
O1838     Mn1841   1.945       .  S
Mn1839     O1857   1.941       .  S
C1840      C1960   1.485       .  S
Mn1841     O1848   2.089       .  S
Mn1841     O1856   2.078       .  S
Mn1841     O1846   1.957       .  S
C1842      C1877   1.492       .  S
C1842      O1858   1.276       .  A
O1843     Mn1855   1.958       .  S
O1843      C1845   1.215       .  S
C1845      C2024   1.482       .  S
O1847     Mn1850   2.088       .  S
C1852      C1989   1.495       .  S
O1854      C1859   1.253       .  A
Mn1855     O1858   2.111       .  S
O1857      C1859   1.214       .  S
C1859      C1861   1.479       .  S
C1860      C1861   1.406       .  A
C1860      C1865   1.396       .  A
C1860      H1867   1.084       .  S
C1861      C1862   1.411       .  A
C1862      C1863   1.407       .  A
C1863      C1864   1.410       .  A
C1864      C1865   1.413       .  A
C1865      C1866   1.509       .  S
C1866      H1870   1.111       .  S
C1866      H1871   1.110       .  S
C1866      H1872   1.108       .  S
C1869      H1873   1.109       .  S
C1869      H2168   1.111       .  S
H1875      C2162   1.111       .  S
C1876      C1877   1.407   1_455  A
C1876      C1881   1.404       .  A
C1876      H1883   1.085       .  S
C1877      C1878   1.415       .  A
C1878      C1879   1.405       .  A
C1878      C1885   1.499       .  S
C1879      C1880   1.402       .  A
C1879      H2177   1.084       .  S
C1880      C1881   1.416   1_655  A
C1881      C1882   1.508       .  S
C1882      H1886   1.110       .  S
C1882      H1887   1.111       .  S
H1884      C2172   1.084       .  S
C1885      H1889   1.109       .  S
C1885      H1890   1.105       .  S
C1885      H2184   1.111       .  S
H1891      C2178   1.111       .  S
C1892      C1897   1.412       .  A
C1892      H1899   1.084       .  S
C1893      C1894   1.422       .  A
C1894      C1895   1.394       .  A
C1894      C1901   1.508       .  S
C1895      C1896   1.399       .  A
C1895      H1900   1.084       .  S
C1897      C1898   1.507       .  S
C1898      H1902   1.111       .  S
C1898      H1903   1.108       .  S
C1898      H1904   1.107       .  S
C1901      H1905   1.107       .  S
C1901      H1906   1.098       .  S
C1901      H1907   1.111       .  S
C1908      C1913   1.400       .  A
C1908      H1915   1.084       .  S
C1909      C1910   1.418       .  A
C1910      C1911   1.410       .  A
C1910      C1917   1.507       .  S
C1911      C1912   1.406       .  A
C1911      H1916   1.082       .  S
C1913      C1914   1.512       .  S
C1914      H1918   1.111       .  S
C1914      H1919   1.111       .  S
C1914      H1920   1.104       .  S
C1917      H1921   1.110       .  S
C1917      H1922   1.108       .  S
C1917      H1923   1.111       .  S
C1924      C1929   1.404       .  A
C1924      H1931   1.082       .  S
C1925      C1926   1.423       .  A
C1926      C1927   1.402       .  A
C1926      C1933   1.504       .  S
C1927      C1928   1.397       .  A
C1927      H1932   1.085       .  S
C1929      C1930   1.508       .  S
C1930      H1934   1.110       .  S
C1930      H1935   1.109       .  S
C1930      H1936   1.111       .  S
C1933      H1937   1.103       .  S
C1933      H1938   1.110       .  S
C1933      H1939   1.111       .  S
C1940      C1941   1.403       .  A
C1940      C1945   1.408       .  A
C1940      H1947   1.084       .  S
C1941      C1942   1.424       .  A
C1942      C1943   1.395       .  A
C1942      C1949   1.514       .  S
C1943      C1944   1.401       .  A
C1944      C1945   1.422       .  A
C1945      C2239   1.509       .  S
C1946      C2238   1.509   1_554  S
C1946      H1950   1.111       .  S
C1946      H1951   1.106       .  S
C1946      H1952   1.110       .  S
C1949      H1954   1.110       .  S
C1956      C1957   1.406       .  A
C1956      C1961   1.405       .  A
C1956      H1963   1.084       .  S
C1957      C1958   1.415   1_565  A
C1958      C1959   1.398       .  A
C1958      C1965   1.508       .  S
C1959      C1960   1.405   1_545  A
C1959      H1964   1.085       .  S
C1960      C1961   1.412       .  A
C1961      C1962   1.498       .  S
C1962      H1966   1.111       .  S
C1962      H1967   1.099       .  S
C1962      H1968   1.111       .  S
C1965      H1969   1.111       .  S
C1965      H1971   1.111       .  S
C1972      C1973   1.403       .  A
C1972      C1977   1.393       .  A
C1972      H1979   1.080       .  S
C1973      C1974   1.413       .  A
C1974      C1975   1.406       .  A
C1974      C1981   1.507   1_565  S
C1975      C1976   1.408       .  A
C1975      H1980   1.084   1_565  S
C1976      C1977   1.411       .  A
C1977      C1978   1.509       .  S
C1978      H1982   1.108       .  S
C1978      H1983   1.110       .  S
C1978      H1984   1.107       .  S
C1981      H1986   1.110   1_545  S
C1981      H1987   1.111       .  S
C1988      C1989   1.406       .  A
C1988      C1993   1.396       .  A
C1988      H1995   1.085       .  S
C1989      C1990   1.417       .  A
C1990      C1991   1.412       .  A
C1990      C1997   1.509       .  S
C1991      C1992   1.414       .  A
C1991      H2289   1.082       .  S
C1992      C1993   1.422       .  A
C1993      C1994   1.512       .  S
C1994      H1998   1.109       .  S
C1994      H1999   1.106       .  S
C1994      H2000   1.110       .  S
H1996      C2284   1.082   1_554  S
C1997      H2001   1.111       .  S
C1997      H2002   1.107       .  S
C1997      H2296   1.111       .  S
H2003      C2290   1.111   1_554  S
C2004      C2005   1.401       .  A
C2004      C2009   1.400       .  A
C2004      H2011   1.084       .  S
C2005      C2006   1.410       .  A
C2006      C2007   1.410       .  A
C2006      C2306   1.505       .  S
C2007      C2008   1.412       .  A
C2007      H2012   1.084       .  S
C2008      C2009   1.419       .  A
C2009      C2010   1.510       .  S
C2010      H2014   1.111       .  S
C2010      H2015   1.110       .  S
C2010      H2016   1.111       .  S
C2013      C2299   1.505       .  S
C2013      H2017   1.110   1_556  S
C2013      H2018   1.110       .  S
C2013      H2019   1.111       .  S
C2020      C2021   1.412       .  A
C2020      C2025   1.412       .  A
C2020      H2027   1.083       .  S
C2021      C2022   1.419       .  A
C2022      C2023   1.395       .  A
C2022      C2029   1.513       .  S
C2023      C2024   1.402       .  A
C2023      H2028   1.084       .  S
C2024      C2025   1.413       .  A
C2025      C2026   1.506       .  S
C2026      H2030   1.111       .  S
C2026      H2031   1.109       .  S
C2026      H2032   1.110       .  S
C2029      H2033   1.107       .  S
C2029      H2034   1.110       .  S
C2029      H2035   1.111       .  S
C2036      C2037   1.395       .  A
C2036      C2041   1.403       .  A
C2036      H2043   1.085       .  S
C2037      C2038   1.409       .  A
C2038      C2039   1.407       .  A
C2038      C2045   1.506       .  S
C2039      C2040   1.411       .  A
C2039      H2044   1.083       .  S
C2040      C2041   1.430       .  A
C2041      C2042   1.511       .  S
C2042      H2046   1.111       .  S
C2042      H2047   1.106       .  S
C2042      H2048   1.110       .  S
C2045      H2049   1.110       .  S
C2045      H2050   1.110       .  S
C2045      H2051   1.111       .  S
C2052      C2053   1.401       .  A
C2052      C2057   1.392       .  A
C2052      C2330   1.479       .  S
C2053      C2054   1.418       .  A
C2053      H2058   1.079       .  S
C2054      C2055   1.421       .  A
C2054      C2065   1.513       .  S
C2055      C2056   1.408       .  A
C2055      H2059   1.077       .  S
C2056      C2057   1.398       .  A
C2056      C2314   1.497       .  S
C2057      H2060   1.082       .  S
C2061      C2062   1.395       .  A
C2061      C2298   1.485       .  S
C2062      C2063   1.404       .  A
C2062      H2067   1.080       .  S
C2063      C2285   1.509       .  S
C2064      C2065   1.419       .  A
C2064      H2068   1.077       .  S
C2065      C2066   1.418       .  A
C2066      H2069   1.078       .  S
C2070      C2071   1.406       .  A
C2070      C2075   1.399       .  A
C2070      C2250   1.486       .  S
C2071      C2072   1.413       .  A
C2071      H2076   1.081       .  S
C2072      C2073   1.410       .  A
C2072      C2081   1.495       .  S
C2073      C2074   1.394       .  A
C2073      H2077   1.081       .  S
C2074      C2075   1.397       .  A
C2074      C2269   1.481       .  S
C2075      H2078   1.083       .  S
C2079      C2084   1.396       .  A
C2079      C2221   1.478       .  S
C2080      C2081   1.411       .  A
C2080      H2085   1.081       .  S
C2081      C2082   1.412       .  A
C2082      H2086   1.079   1_565  S
C2083      C2084   1.403       .  A
C2083      C2237   1.492       .  S
C2084      H2087   1.084       .  S
C2088      C2089   1.407       .  A
C2088      C2093   1.398       .  A
C2089      C2090   1.420       .  A
C2089      H2094   1.077       .  S
C2090      C2091   1.420       .  A
C2091      C2092   1.399       .  A
C2091      H2095   1.070       .  S
C2092      C2093   1.399       .  A
C2097      C2102   1.398       .  A
C2097      C2173   1.486       .  S
C2098      C2099   1.419       .  A
C2098      H2103   1.079   1_655  S
C2099      C2100   1.416       .  A
C2100      H2104   1.077       .  S
C2101      C2102   1.398       .  A
C2101      C2157   1.486       .  S
C2102      H2105   1.084       .  S
O2106      C2133   1.263   1_545  A
C2107      C2301   1.492       .  S
C2107      O2140   1.269       .  A
C2107      O2137   1.269       .  A
O2108     Mn2115   2.173       .  S
O2108     Mn2126   2.124       .  S
O2108     Mn2130   2.159       .  S
O2109      C2119   1.277       .  A
O2109     Mn2143   2.116       .  S
O2110      C2133   1.274       .  A
O2110     Mn2126   2.121       .  S
O2111      C2138   1.254       .  A
O2111     Mn2130   2.120       .  S
O2112     Mn2132   1.969       .  S
O2112      C2128   1.216       .  S
C2113      C2266   1.475       .  S
C2113      O2116   1.250       .  A
C2113      O2139   1.219       .  S
O2114     Mn2115   2.171       .  S
O2114     Mn2148   2.120       .  S
O2114     Mn2130   2.181       .  S
Mn2115     O2120   2.120       .  S
O2117      C2119   1.267       .  A
O2117     Mn2124   2.075       .  S
C2118      C2234   1.485       .  S
C2118      O2144   1.255       .  A
C2118      O2131   1.209       .  S
C2119      C2333   1.501       .  S
O2120      C2145   1.255       .  A
O2121     Mn2124   2.109       .  S
O2121     Mn2143   2.125       .  S
O2122     Mn2126   1.958       .  S
O2122     Mn2148   1.966       .  S
O2122      C2145   1.219       .  S
C2123      C2205   1.488       .  S
C2123      O2125   1.273       .  A
Mn2124     O2137   2.104       .  S
O2125     Mn2148   2.111       .  S
Mn2126     O2142   2.091       .  S
Mn2126     O2136   1.954       .  S
O2127      C2129   1.272       .  A
C2128      C2186   1.490       .  S
C2128      O2146   1.257       .  A
C2129      C2218   1.496       .  S
C2129      O2142   1.269       .  A
O2131     Mn2134   1.945       .  S
Mn2132     O2150   1.941       .  S
C2133      C2253   1.485       .  S
Mn2134     O2141   2.089       .  S
Mn2134     O2149   2.078       .  S
Mn2134     O2139   1.957       .  S
C2135      C2170   1.492       .  S
C2135      O2151   1.276       .  A
O2136     Mn2148   1.958       .  S
O2136      C2138   1.215       .  S
C2138      C2317   1.482       .  S
O2140     Mn2143   2.088       .  S
C2145      C2282   1.495       .  S
O2147      C2152   1.253       .  A
Mn2148     O2151   2.111       .  S
O2150      C2152   1.214       .  S
C2152      C2154   1.479       .  S
C2153      C2154   1.406       .  A
C2153      C2158   1.396       .  A
C2153      H2160   1.084       .  S
C2154      C2155   1.411       .  A
C2155      C2156   1.407       .  A
C2156      C2157   1.410       .  A
C2157      C2158   1.413       .  A
C2158      C2159   1.509       .  S
C2159      H2163   1.111       .  S
C2159      H2164   1.110       .  S
C2159      H2165   1.108       .  S
C2162      H2166   1.109       .  S
C2169      C2170   1.407   1_455  A
C2169      C2174   1.404       .  A
C2169      H2176   1.085       .  S
C2170      C2171   1.415       .  A
C2171      C2172   1.405       .  A
C2171      C2178   1.499       .  S
C2172      C2173   1.402       .  A
C2173      C2174   1.416   1_655  A
C2174      C2175   1.508       .  S
C2175      H2179   1.110       .  S
C2175      H2180   1.111       .  S
C2178      H2182   1.109       .  S
C2178      H2183   1.105       .  S
C2185      C2190   1.412       .  A
C2185      H2192   1.084       .  S
C2186      C2187   1.422       .  A
C2187      C2188   1.394       .  A
C2187      C2194   1.508       .  S
C2188      C2189   1.399       .  A
C2188      H2193   1.084       .  S
C2190      C2191   1.507       .  S
C2191      H2195   1.111       .  S
C2191      H2196   1.108       .  S
C2191      H2197   1.107       .  S
C2194      H2198   1.107       .  S
C2194      H2199   1.098       .  S
C2194      H2200   1.111       .  S
C2201      C2206   1.400       .  A
C2201      H2208   1.084       .  S
C2202      C2203   1.418       .  A
C2203      C2204   1.410       .  A
C2203      C2210   1.507       .  S
C2204      C2205   1.406       .  A
C2204      H2209   1.082       .  S
C2206      C2207   1.512       .  S
C2207      H2211   1.111       .  S
C2207      H2212   1.111       .  S
C2207      H2213   1.104       .  S
C2210      H2214   1.110       .  S
C2210      H2215   1.108       .  S
C2210      H2216   1.111       .  S
C2217      C2222   1.404       .  A
C2217      H2224   1.082       .  S
C2218      C2219   1.423       .  A
C2219      C2220   1.402       .  A
C2219      C2226   1.504       .  S
C2220      C2221   1.397       .  A
C2220      H2225   1.085       .  S
C2222      C2223   1.508       .  S
C2223      H2227   1.110       .  S
C2223      H2228   1.109   1_556  S
C2223      H2229   1.111       .  S
C2226      H2230   1.103       .  S
C2226      H2231   1.110       .  S
C2226      H2232   1.111       .  S
C2233      C2234   1.403       .  A
C2233      C2238   1.408       .  A
C2233      H2240   1.084       .  S
C2234      C2235   1.424       .  A
C2235      C2236   1.395       .  A
C2235      C2242   1.514       .  S
C2236      C2237   1.401       .  A
C2237      C2238   1.422       .  A
C2239      H2243   1.111       .  S
C2239      H2244   1.106       .  S
C2239      H2245   1.110       .  S
C2242      H2247   1.110       .  S
C2249      C2250   1.406       .  A
C2249      C2254   1.405       .  A
C2249      H2256   1.084       .  S
C2250      C2251   1.415   1_565  A
C2251      C2252   1.398       .  A
C2251      C2258   1.508       .  S
C2252      C2253   1.405   1_545  A
C2252      H2257   1.085       .  S
C2253      C2254   1.412       .  A
C2254      C2255   1.498       .  S
C2255      H2259   1.111       .  S
C2255      H2260   1.099       .  S
C2255      H2261   1.111       .  S
C2258      H2262   1.111       .  S
C2258      H2264   1.111       .  S
C2265      C2266   1.403       .  A
C2265      C2270   1.393       .  A
C2265      H2272   1.080       .  S
C2266      C2267   1.413       .  A
C2267      C2268   1.406       .  A
C2267      C2274   1.507   1_565  S
C2268      C2269   1.408       .  A
C2268      H2273   1.084   1_565  S
C2269      C2270   1.411       .  A
C2270      C2271   1.509       .  S
C2271      H2275   1.108       .  S
C2271      H2276   1.110       .  S
C2271      H2277   1.107       .  S
C2274      H2279   1.110   1_545  S
C2274      H2280   1.111       .  S
C2281      C2282   1.406       .  A
C2281      C2286   1.396       .  A
C2281      H2288   1.085       .  S
C2282      C2283   1.417       .  A
C2283      C2284   1.412       .  A
C2283      C2290   1.509       .  S
C2284      C2285   1.414       .  A
C2285      C2286   1.422       .  A
C2286      C2287   1.512       .  S
C2287      H2291   1.109       .  S
C2287      H2292   1.106       .  S
C2287      H2293   1.110       .  S
C2290      H2294   1.111       .  S
C2290      H2295   1.107       .  S
C2297      C2298   1.401       .  A
C2297      C2302   1.400       .  A
C2297      H2304   1.084       .  S
C2298      C2299   1.410       .  A
C2299      C2300   1.410       .  A
C2300      C2301   1.412       .  A
C2300      H2305   1.084       .  S
C2301      C2302   1.419       .  A
C2302      C2303   1.510       .  S
C2303      H2307   1.111       .  S
C2303      H2308   1.110       .  S
C2303      H2309   1.111       .  S
C2306      H2310   1.110       .  S
C2306      H2311   1.110       .  S
C2306      H2312   1.111       .  S
C2313      C2314   1.412       .  A
C2313      C2318   1.412       .  A
C2313      H2320   1.083       .  S
C2314      C2315   1.419       .  A
C2315      C2316   1.395       .  A
C2315      C2322   1.513       .  S
C2316      C2317   1.402       .  A
C2316      H2321   1.084       .  S
C2317      C2318   1.413       .  A
C2318      C2319   1.506       .  S
C2319      H2323   1.111       .  S
C2319      H2324   1.109       .  S
C2319      H2325   1.110       .  S
C2322      H2326   1.107       .  S
C2322      H2327   1.110       .  S
C2322      H2328   1.111       .  S
C2329      C2330   1.395       .  A
C2329      C2334   1.403       .  A
C2329      H2336   1.085       .  S
C2330      C2331   1.409       .  A
C2331      C2332   1.407       .  A
C2331      C2338   1.506       .  S
C2332      C2333   1.411       .  A
C2332      H2337   1.083       .  S
C2333      C2334   1.430       .  A
C2334      C2335   1.511       .  S
C2335      H2339   1.111       .  S
C2335      H2340   1.106       .  S
C2335      H2341   1.110       .  S
C2338      H2342   1.110       .  S
C2338      H2343   1.110       .  S
C2338      H2344   1.111       .  S
