geometry optimzed in LAMMPS
_audit_creation_date              2020-11-30 
_audit_creation_method            'lammps2cif' 
_symmetry_space_group_name_H-M    'P1' 
_symmetry_Int_Tables_number       1 
_symmetry_cell_setting            triclinic 
loop_ 
_symmetry_equiv_pos_as_xyz 
  x,y,z 
_cell_length_a                    52.20787787 
_cell_length_b                    52.210651547775996 
_cell_length_c                    46.324473766066916 
_cell_angle_alpha                 90.00470786115267 
_cell_angle_beta                  89.93456952780289 
_cell_angle_gamma                 120.06043020414675 
loop_ 
_atom_site_label 
_atom_site_type_symbol 
_atom_site_fract_x 
_atom_site_fract_y 
_atom_site_fract_z 
_atom_site_charge 
C1          C  0.28586619  0.28516042  0.00788876     0.80400
N2          N  0.29708882  0.29722780  0.03427248    -0.77900
C3          C  0.32397387  0.32242053  0.03627068     0.82800
N4          N  0.33631739  0.33870035  0.51256398    -0.77900
C5          C  0.32458739  0.32731777  0.48650626     0.82900
N6          N  0.29810587  0.30204657  0.48538516    -0.79600
C7          C  0.69405578  0.68775959  0.01070670     0.80400
N8          N  0.67897510  0.67265086  0.03470929    -0.77900
C9          C  0.65320874  0.64646252  0.03252352     0.82800
N10         N  0.64038826  0.63852684  0.50498675    -0.77900
C11         C  0.65462168  0.65337708  0.48078459     0.82900
N12         N  0.68021395  0.67972504  0.48310992    -0.79600
N13         N  0.48737853  0.49057640  0.30393211    -0.36400
N14         N  0.52762002  0.52713662  0.25825385    -0.57000
N15         N  0.48376678  0.48932709  0.21501870    -0.36400
N16         N  0.44583147  0.45008014  0.26067777    -0.57000
C17         C  0.51125678  0.50898026  0.31996283     0.27100
C18         C  0.46856256  0.46808013  0.32120687     0.27100
C19         C  0.50696831  0.50665889  0.19769107     0.27100
C20         C  0.46387565  0.46617883  0.19899472     0.27100
C21         C  0.54258595  0.54412898  0.28112318     0.35800
C22         C  0.54104171  0.54314765  0.23438032     0.35800
C23         C  0.42968585  0.43740261  0.28468003     0.35800
C24         C  0.42774447  0.43683811  0.23795520     0.35800
C25         C  0.50734909  0.49828126  0.34798304    -0.21700
C26         C  0.48051596  0.47246597  0.34874899    -0.21700
C27         C  0.50145726  0.49467353  0.17011759    -0.21700
C28         C  0.47432363  0.46921330  0.17093324    -0.21700
C29         C  0.56597056  0.57087029  0.27171994    -0.22800
C30         C  0.56498080  0.57026492  0.24212538    -0.22800
C31         C  0.40125457  0.41573546  0.27714995    -0.22800
C32         C  0.40004260  0.41535866  0.24754666    -0.22800
C33         C  0.53610094  0.53566032  0.31040447    -0.18100
C34         C  0.44038979  0.44427528  0.31330818    -0.18100
C35         C  0.43624478  0.44267572  0.20863964    -0.18100
C36         C  0.53267333  0.53344032  0.20562612    -0.18100
H37         H  0.52228196  0.50803540  0.36605530     0.14800
H38         H  0.47085456  0.45860296  0.36756824     0.14800
H39         H  0.51557569  0.50329733  0.15130520     0.14800
H40         H  0.46357957  0.45456242  0.15286303     0.14800
H41         H  0.58207738  0.58895439  0.28480332     0.13100
H42         H  0.58016916  0.58782808  0.22794954     0.13100
H43         H  0.38326265  0.40160502  0.29147725     0.13100
H44         H  0.38098512  0.40084572  0.23456718     0.13100
H45         H  0.48350404  0.49387744  0.28280285     0.26300
H46         H  0.48116122  0.49372979  0.23621407     0.26300
C47         C  0.68376713  0.97317956  0.00010677     0.80400
N48         N  0.67067927  0.97422273  0.47708218    -0.77900
C49         C  0.64426693  0.97323857  0.47874959     0.82800
N50         N  0.63040975  0.97029564  0.00354796    -0.77900
C51         C  0.64423502  0.96963772  0.02808838     0.82900
N52         N  0.67107564  0.97140319  0.02628504    -0.79600
C53         C  0.29720861  0.00217858  0.00349629     0.80400
N54         N  0.31102087  0.00205297  0.02839987    -0.77900
C55         C  0.33800430  0.00410791  0.02778559     0.82800
N56         N  0.35115816  0.00639597  0.00196415    -0.77900
C57         C  0.32918243  0.99380630  0.47394187     0.82900
N58         N  0.30408972  0.99552671  0.47560054    -0.79600
N59         N  0.49500965  0.99216601  0.20846219    -0.36400
N60         N  0.45541697  0.99306084  0.25259621    -0.57000
N61         N  0.49513484  0.99398201  0.29703343    -0.36400
N62         N  0.53200862  0.98811991  0.25293800    -0.57000
C63         C  0.47172564  0.98781170  0.19212822     0.27100
C64         C  0.51149521  0.98409914  0.19240423     0.27100
C65         C  0.47138333  0.98866025  0.31322763     0.27100
C66         C  0.51228393  0.98709273  0.31332539     0.27100
C67         C  0.44337623  0.99826541  0.22914424     0.35800
C68         C  0.44290057  0.99808169  0.27582419     0.35800
C69         C  0.54868407  0.99076961  0.22961766     0.35800
C70         C  0.54941719  0.99302599  0.27616618     0.35800
C71         C  0.47363599  0.97722112  0.16521592    -0.21700
C72         C  0.49869008  0.97482176  0.16541386    -0.21700
C73         C  0.47362357  0.97855995  0.34026755    -0.21700
C74         C  0.49942447  0.97751721  0.34031609    -0.21700
C75         C  0.42284290  0.00628188  0.23751657    -0.22800
C76         C  0.42242792  0.00600635  0.26713041    -0.22800
C77         C  0.57666738  0.99695864  0.23804306    -0.22800
C78         C  0.57719311  0.99855231  0.26759776    -0.22800
C79         C  0.44946595  0.99431827  0.20029766    -0.18100
C80         C  0.53850078  0.98618174  0.20090491    -0.18100
C81         C  0.53996785  0.99065767  0.30504287    -0.18100
C82         C  0.44846122  0.99397070  0.30474084    -0.18100
H83         H  0.45852273  0.97177063  0.14726391     0.14800
H84         H  0.50664712  0.96724455  0.14763009     0.14800
H85         H  0.45831555  0.97265100  0.35815015     0.14800
H86         H  0.50784406  0.97063617  0.35825264     0.14800
H87         H  0.40931997  0.01146683  0.22374593     0.13100
H88         H  0.40855373  0.01093747  0.28069756     0.13100
H89         H  0.59477472  0.99996359  0.22433464     0.13100
H90         H  0.59579778  0.00296545  0.28121028     0.13100
H91         H  0.50016072  0.00166765  0.22879605     0.26300
H92         H  0.50031822  0.00345482  0.27665635     0.26300
C93         C  0.98186059  0.28003854  0.99319825     0.80400
N94         N  0.97793481  0.28858652  0.46646442    -0.77900
C95         C  0.97373360  0.31215286  0.46358189     0.82800
N96         N  0.97521825  0.32813593  0.98777195    -0.77900
C97         C  0.97732878  0.31874129  0.01443121     0.82900
N98         N  0.98054788  0.29464093  0.01695165    -0.79600
C99         C  0.98383156  0.68533402  0.99372089     0.80400
N100        N  0.98168859  0.66886447  0.46878943    -0.77900
C101        C  0.97829630  0.64134237  0.47043078     0.82800
N102        N  0.97431360  0.62926429  0.99711540    -0.77900
C103        C  0.97304514  0.64294753  0.02150639     0.82900
N104        N  0.97794641  0.67114461  0.01976583    -0.79600
N105        N  0.96166418  0.47448289  0.19846373    -0.36400
N106        N  0.96355770  0.51191581  0.24605716    -0.57000
N107        N  0.97172197  0.47301156  0.28650011    -0.36400
N108        N  0.96574544  0.43357796  0.23913784    -0.57000
C109        C  0.95645493  0.49375699  0.18362792     0.27100
C110        C  0.95840989  0.45303055  0.17995502     0.27100
C111        C  0.96766720  0.49068882  0.30506223     0.27100
C112        C  0.96729053  0.44879742  0.30144752     0.27100
C113        C  0.96432745  0.52913280  0.22382516     0.35800
C114        C  0.97008245  0.52855770  0.27022121     0.35800
C115        C  0.96764643  0.42118403  0.21423291     0.35800
C116        C  0.97084545  0.41932626  0.26074416     0.35800
C117        C  0.94983860  0.48437916  0.15518912    -0.21700
C118        C  0.95109607  0.45878351  0.15287533    -0.21700
C119        C  0.96100927  0.47775100  0.33223616    -0.21700
C120        C  0.96087669  0.45144308  0.32998705    -0.21700
C121        C  0.97069450  0.55663939  0.23403478    -0.22800
C122        C  0.97462512  0.55639168  0.26330463    -0.22800
C123        C  0.97355046  0.39858757  0.22011377    -0.22800
C124        C  0.97547877  0.39735589  0.24958199    -0.22800
C125        C  0.95932302  0.52053916  0.19439942    -0.18100
C126        C  0.96330801  0.42923031  0.18624341    -0.18100
C127        C  0.96987165  0.42482440  0.29046029    -0.18100
C128        C  0.97085733  0.51871156  0.29859608    -0.18100
H129        H  0.94512844  0.49510911  0.13767866     0.14800
H130        H  0.94744456  0.44611211  0.13328755     0.14800
H131        H  0.95664651  0.48634938  0.35173803     0.14800
H132        H  0.95653069  0.43603313  0.34746761     0.14800
H133        H  0.97267722  0.57513171  0.22166186     0.13100
H134        H  0.98023895  0.57472555  0.27776868     0.13100
H135        H  0.97601663  0.38431503  0.20479121     0.13100
H136        H  0.97969763  0.38197595  0.26141935     0.13100
H137        H  0.96855185  0.47658415  0.21959216     0.26300
H138        H  0.97864579  0.47803528  0.26526940     0.26300
O139        O  0.02589199  0.03656884  0.01813473    -0.88200
C140        C  0.96443594  0.01281496  0.45426644     0.87800
Mg141      Mg  0.06066047  0.02562972  0.01614286     1.58100
O142        O  0.93867835  0.97238389  0.01848773    -0.87900
O143        O  0.99010014  0.03126577  0.04650173    -0.75200
C144        C  0.99343128  0.88312942  0.48358470     0.92900
O145        O  0.03556241  0.03052481  0.45118170    -0.75100
O146        O  0.01824603  0.90678766  0.48042221    -0.82600
Mg147      Mg  0.02124731  0.05681933  0.48006772     1.58000
C148        C  0.88733395  0.88110256  0.01236304     0.92800
O149        O  0.00894119  0.08925848  0.00510392    -0.80800
H150        H  0.93330895  0.96986737  0.06132287    -0.06200
C151        C  0.96328004  0.93518818  0.45450298     0.87800
O152        O  0.03465630  0.98461926  0.04454392    -0.75300
O153        O  0.97536644  0.02231098  0.47826608    -0.88100
O154        O  0.88763954  0.90464820  0.00457351    -0.80900
C155        C  0.88225320  0.98158797  0.48555196     0.92900
C156        C  0.98529117  0.08926038  0.01218337     0.92800
Mg157      Mg  0.95929963  0.91582767  0.01431178     1.58000
O158        O  0.97039994  0.88376384  0.49169368    -0.80800
O159        O  0.94692775  0.94257240  0.04504676    -0.75100
O160        O  0.90602386  0.00516903  0.49248676    -0.80900
O161        O  0.06958552  0.09283727  0.48235418    -0.82600
O162        O  0.07403840  0.96742128  0.99876829    -0.80900
C163        C  0.93903333  0.96183920  0.04226874     0.87200
O164        O  0.00493218  0.94958985  0.01524614    -0.88100
O165        O  0.95341729  0.93550364  0.47868374    -0.88200
O166        O  0.99018838  0.94245711  0.45070626    -0.75200
Mg167      Mg  0.94945446  0.01767366  0.01759528     1.58000
O168        O  0.88170148  0.95710536  0.48245941    -0.82600
H169        H  0.03173675  0.04453231  0.06052444    -0.06300
O170        O  0.04174814  0.00064549  0.47956462    -0.87900
H171        H  0.05067267  0.00362187  0.43734516    -0.06200
H172        H  0.00771425  0.94210451  0.05710725    -0.06400
C173        C  0.04338244  0.01142396  0.45545189     0.87200
C174        C  0.01679367  0.03800093  0.04234849     0.87800
C175        C  0.01559970  0.95784304  0.03952085     0.87800
H176        H  0.94880908  0.92929165  0.43599713    -0.06300
O177        O  0.94450627  0.98598894  0.45061547    -0.75400
Mg178      Mg  0.03036007  0.95516517  0.48003547     1.58000
H179        H  0.97244009  0.02751372  0.43585745    -0.06300
C180        C  0.09332649  0.09234782  0.48732428     0.92800
O181        O  0.09724162  0.01415598  0.01384539    -0.82600
C182        C  0.09725841  0.99032785  0.00797245     0.92900
O183        O  0.96101173  0.06529509  0.01597140    -0.82600
Mg184      Mg  0.91842814  0.94592029  0.48066029     1.58200
O185        O  0.09280768  0.06885886  0.49574920    -0.80900
O186        O  0.91105193  0.87998536  0.01433932    -0.82600
C187        C  0.96293722  0.79996730  0.47797564    -0.27500
C188        C  0.98853862  0.79814271  0.48259747     0.02100
C189        C  0.01930250  0.82762465  0.97825759     0.30200
C190        C  0.01897872  0.85429084  0.97602838    -0.19200
C191        C  0.99169688  0.85393540  0.48005075    -0.28700
C192        C  0.96433381  0.82748245  0.47654189     0.44300
C193        C  0.98629498  0.76870231  0.48546960     0.05500
O194        O  0.04589488  0.82828552  0.97772140    -0.57200
H195        H  0.03992508  0.87474356  0.97414412     0.18400
O196        O  0.93869243  0.82815736  0.47224181    -0.63900
H197        H  0.94170241  0.77991285  0.47568850     0.16800
C198        C  0.97923071  0.75442464  0.01063981     0.29100
C199        C  0.97740891  0.72674383  0.01326196    -0.24800
C200        C  0.98202348  0.71244706  0.49021471    -0.24100
C201        C  0.99850174  0.73212423  0.46759977     0.40500
C202        C  0.00060620  0.75992949  0.46550063    -0.26500
O203        O  0.96877476  0.76434448  0.03259422    -0.58400
H204        H  0.96694676  0.71350983  0.03228323     0.16200
O205        O  0.01280321  0.72457410  0.44741378    -0.59800
H206        H  0.01329529  0.77464878  0.44801637     0.14600
H207        H  0.93713705  0.82945892  0.45101815     0.46500
H208        H  0.94694746  0.75340485  0.03038522     0.41900
H209        H  0.03289328  0.73176209  0.45537239     0.45300
H210        H  0.05334417  0.83275975  0.99783524     0.36800
C211        C  0.00052715  0.56671983  0.36575681    -0.27500
C212        C  0.97881263  0.57460521  0.37058149     0.02100
C213        C  0.95459506  0.56421091  0.35155344     0.30200
C214        C  0.95224649  0.54612069  0.32825929    -0.19200
C215        C  0.97401971  0.53837860  0.32330517    -0.28700
C216        C  0.99836363  0.54891015  0.34222398     0.44300
C217        C  0.98094301  0.59285537  0.39598170     0.05500
O218        O  0.93281970  0.57120452  0.35584856    -0.57200
H219        H  0.93327141  0.53793418  0.31405906     0.18400
O220        O  0.01988482  0.54151582  0.33811193    -0.63900
H221        H  0.01926254  0.57451629  0.38022149     0.16800
C222        C  0.98202998  0.58332572  0.42410460     0.29100
C223        C  0.98207502  0.59981963  0.44791596    -0.24800
C224        C  0.98068189  0.62590232  0.44437460    -0.24100
C225        C  0.98023079  0.63572033  0.41602738     0.40500
C226        C  0.98049303  0.61929125  0.39220957    -0.26500
O227        O  0.98213768  0.55740633  0.42859518    -0.58400
H228        H  0.98260523  0.59169618  0.46929339     0.16200
O229        O  0.97891172  0.66093898  0.41118069    -0.59800
H230        H  0.97983252  0.62697308  0.37064227     0.14600
H231        H  0.03395023  0.55630070  0.32417371     0.46500
H232        H  0.96098520  0.54190351  0.43007618     0.41900
H233        H  0.95749849  0.65436401  0.41065419     0.45300
H234        H  0.91823148  0.55549010  0.36874906     0.36800
C235        C  0.98674336  0.58258577  0.13928603    -0.27500
C236        C  0.96015790  0.57868806  0.12772559     0.02100
C237        C  0.93307760  0.55665956  0.13962441     0.30200
C238        C  0.93291252  0.53846983  0.16204720    -0.19200
C239        C  0.95955369  0.54189397  0.17286494    -0.28700
C240        C  0.98654768  0.56432931  0.16154213     0.44300
C241        C  0.96105000  0.59583152  0.10164508     0.05500
O242        O  0.90667018  0.55230486  0.12903106    -0.57200
H243        H  0.91198833  0.52115530  0.17050331     0.18400
O244        O  0.01287739  0.56810121  0.17171333    -0.63900
H245        H  0.00775232  0.59902723  0.13019485     0.16800
C246        C  0.97777400  0.62701992  0.10090395     0.29100
C247        C  0.98027545  0.64235184  0.07510614    -0.24800
C248        C  0.96696644  0.62693898  0.04953431    -0.24100
C249        C  0.94953005  0.59572581  0.05062491     0.40500
C250        C  0.94669242  0.58055673  0.07642379    -0.26500
O251        O  0.99159684  0.64267192  0.12534802    -0.58400
H252        H  0.99369400  0.66626561  0.07485674     0.16200
O253        O  0.93556984  0.57964789  0.02641966    -0.59800
H254        H  0.93397103  0.55658891  0.07646144     0.14600
H255        H  0.01687530  0.55458972  0.15998386     0.46500
H256        H  0.01289951  0.64951618  0.12247736     0.41900
H257        H  0.91577871  0.57794040  0.02653521     0.45300
H258        H  0.90244724  0.56598123  0.14019466     0.36800
C259        C  0.99635962  0.22148796  0.02607754    -0.27500
C260        C  0.98663981  0.20040549  0.00401082     0.02100
C261        C  0.97922367  0.20724897  0.47557653     0.30200
C262        C  0.97709399  0.23284011  0.47283967    -0.19200
C263        C  0.98460322  0.25315731  0.99677452    -0.28700
C264        C  0.99539416  0.24763726  0.02271865     0.44300
C265        C  0.98674195  0.17243002  0.00849036     0.05500
O266        O  0.97224558  0.18847342  0.45248053    -0.57200
H267        H  0.96995938  0.23717386  0.45238257     0.18400
O268        O  0.00491244  0.26747738  0.04510603    -0.63900
H269        H  0.00438001  0.21745836  0.04616404     0.16800
C270        C  0.01424631  0.17166270  0.50585358     0.29100
C271        C  0.01337868  0.14444988  0.50814019    -0.24800
C272        C  0.98570765  0.11795710  0.01393370    -0.24100
C273        C  0.95913799  0.11902660  0.01517542     0.40500
C274        C  0.95987676  0.14606826  0.01225596    -0.26500
O275        O  0.04091993  0.19714609  0.50224603    -0.58400
H276        H  0.03400972  0.14425562  0.50704092     0.16200
O277        O  0.93211817  0.09370513  0.01758611    -0.59800
H278        H  0.93929691  0.14642155  0.01246598     0.14600
H279        H  0.02629693  0.28098952  0.04145111     0.46500
H280        H  0.04911433  0.20310360  0.52198435     0.41900
H281        H  0.92766651  0.09136400  0.03855387     0.45300
H282        H  0.99137845  0.19452136  0.44275339     0.36800
C283        C  0.96345808  0.33582387  0.09086630    -0.27500
C284        C  0.97014077  0.36524020  0.08789911     0.02100
C285        C  0.97988701  0.37950467  0.06108586     0.30200
C286        C  0.98234118  0.36415531  0.03751915    -0.19200
C287        C  0.97550336  0.33454604  0.04025520    -0.28700
C288        C  0.96624266  0.32049441  0.06739579     0.44300
C289        C  0.96795009  0.38123022  0.11318815     0.05500
O290        O  0.98714388  0.40848124  0.05773083    -0.57200
H291        H  0.98978806  0.37558606  0.01704321     0.18400
O292        O  0.95974407  0.29181826  0.07130092    -0.63900
H293        H  0.95636342  0.32481095  0.11157746     0.16800
C294        C  0.94055715  0.37226040  0.12671371     0.29100
C295        C  0.93917795  0.38788408  0.15067714    -0.24800
C296        C  0.96498852  0.41219016  0.16148043    -0.24100
C297        C  0.99237403  0.42081759  0.14826904     0.40500
C298        C  0.99370058  0.40552308  0.12410500    -0.26500
O299        O  0.91498217  0.34900606  0.11598413    -0.58400
H300        H  0.91799896  0.38124428  0.16071688     0.16200
O301        O  0.01786462  0.44441792  0.15867659    -0.59800
H302        H  0.01490806  0.41243760  0.11398856     0.14600
H303        H  0.93802677  0.27961414  0.06863929     0.46500
H304        H  0.91129636  0.33171105  0.12790882     0.41900
H305        H  0.02558669  0.43583654  0.17297750     0.45300
H306        H  0.96822454  0.40776594  0.05326521     0.36800
C307        C  0.98597492  0.33526456  0.38423587    -0.27500
C308        C  0.97038550  0.35070630  0.38238357     0.02100
C309        C  0.95513398  0.35213321  0.40682874     0.30200
C310        C  0.95583725  0.33870090  0.43258738    -0.19200
C311        C  0.97179562  0.32369313  0.43486363    -0.28700
C312        C  0.98669535  0.32171374  0.41023476     0.44300
C313        C  0.97088038  0.36665044  0.35566128     0.05500
O314        O  0.94005272  0.36737622  0.40601280    -0.57200
H315        H  0.94407579  0.34046345  0.45107107     0.18400
O316        O  0.00263481  0.30737141  0.41146380    -0.63900
H317        H  0.99784506  0.33400273  0.36559542     0.16800
C318        C  0.99764408  0.39003867  0.34476768     0.29100
C319        C  0.99715714  0.40820409  0.32271858    -0.24800
C320        C  0.97018432  0.40348021  0.31150248    -0.24100
C321        C  0.94353575  0.37947567  0.32156781     0.40500
C322        C  0.94401599  0.36108550  0.34327180    -0.26500
O323        O  0.02424524  0.39622299  0.35650783    -0.58400
H324        H  0.01778533  0.42667113  0.31507335     0.16200
O325        O  0.91690226  0.37447378  0.31095933    -0.59800
H326        H  0.92325258  0.34318983  0.35139730     0.14600
H327        H  0.02245862  0.32235252  0.41865429     0.46500
H328        H  0.02839341  0.41121422  0.37167586     0.41900
H329        H  0.91050549  0.38506809  0.32429942     0.45300
H330        H  0.95501117  0.38816512  0.41056875     0.36800
C331        C  0.21923614  0.99203921  0.48449537    -0.27500
C332        C  0.21129973  0.99584420  0.00885972     0.02100
C333        C  0.22771708  0.99866214  0.03392926     0.30200
C334        C  0.25540985  0.00054353  0.03176276    -0.19200
C335        C  0.26751914  0.99987572  0.00475862    -0.28700
C336        C  0.24611295  0.99262038  0.48062171     0.44300
C337        C  0.18174479  0.99360212  0.01038057     0.05500
O338        O  0.21624044  0.99820337  0.06072549    -0.57200
H339        H  0.26737291  0.00253444  0.05149390     0.18400
O340        O  0.25352589  0.98810311  0.45344584    -0.63900
H341        H  0.20512548  0.98815649  0.46593916     0.16800
C342        C  0.17729224  0.01596480  0.52787122     0.29100
C343        C  0.14934967  0.01354365  0.52873796    -0.24800
C344        C  0.12557857  0.98993051  0.01035210    -0.24100
C345        C  0.12956991  0.96795065  0.99661785     0.40500
C346        C  0.15734291  0.96986707  0.99688010    -0.26500
O347        O  0.20127719  0.04119729  0.53818987    -0.58400
H348        H  0.14747208  0.03158567  0.53800513     0.16200
O349        O  0.10678846  0.94488230  0.98214030    -0.59800
H350        H  0.15994207  0.95288908  0.98608679     0.14600
H351        H  0.24387199  0.96630752  0.45135382     0.46500
H352        H  0.20851336  0.05510986  0.52162848     0.41900
H353        H  0.10848221  0.95181939  0.96192063     0.45300
H354        H  0.22915137  0.01818030  0.06896807     0.36800
C355        C  0.36722958  0.97274972  0.41737556    -0.27500
C356        C  0.37273250  0.99357284  0.39566948     0.02100
C357        C  0.36154321  0.01303521  0.39866951     0.30200
C358        C  0.34564499  0.01183701  0.42362753    -0.19200
C359        C  0.34156998  0.99195265  0.44595247    -0.28700
C360        C  0.35194456  0.97192477  0.44237178     0.44300
C361        C  0.39107398  0.99493601  0.37071132     0.05500
O362        O  0.36577555  0.03293792  0.37723953    -0.57200
H363        H  0.33767950  0.02730160  0.42608705     0.18400
O364        O  0.34776682  0.95179066  0.46351062    -0.63900
H365        H  0.37562918  0.95759815  0.41529889     0.16800
C366        C  0.41872623  0.02034813  0.36534231     0.29100
C367        C  0.43713958  0.01993070  0.34356873    -0.24800
C368        C  0.42848882  0.99421786  0.32734251    -0.24100
C369        C  0.40104311  0.96879252  0.33280605     0.40500
C370        C  0.38244463  0.96931404  0.35423982    -0.26500
O371        O  0.42839914  0.04526123  0.38194218    -0.58400
H372        H  0.45842298  0.03950078  0.33963475     0.16200
O373        O  0.39247477  0.94325462  0.31755028    -0.59800
H374        H  0.36149582  0.94944791  0.35851505     0.14600
H375        H  0.32812044  0.93431853  0.45940415     0.46500
H376        H  0.43928847  0.04271352  0.39818325     0.41900
H377        H  0.39977594  0.93212506  0.32894436     0.45300
H378        H  0.37976621  0.05268776  0.38535116     0.36800
C379        C  0.36021803  0.00751838  0.10679506    -0.27500
C380        C  0.38339156  0.00143408  0.10433473     0.02100
C381        C  0.39143528  0.99613733  0.07702887     0.30200
C382        C  0.37630338  0.99689106  0.05251220    -0.19200
C383        C  0.35307291  0.00315244  0.05462257    -0.28700
C384        C  0.34509178  0.00849407  0.08219563     0.44300
C385        C  0.39943155  0.00084525  0.13023836     0.05500
O386        O  0.41356502  0.98938836  0.07423218    -0.57200
H387        H  0.38279780  0.99237743  0.03176690     0.18400
O388        O  0.32340356  0.01578837  0.08532761    -0.63900
H389        H  0.35410885  0.01188486  0.12781718     0.16800
C390        C  0.42884347  0.02330140  0.13499598     0.29100
C391        C  0.44467864  0.02118391  0.15825215    -0.24800
C392        C  0.43143010  0.99686791  0.17701484    -0.24100
C393        C  0.40175794  0.97477303  0.17274631     0.40500
C394        C  0.38590016  0.97686802  0.14938582    -0.26500
O395        O  0.44247648  0.04700542  0.11659883    -0.58400
H396        H  0.46750934  0.03829381  0.16145360     0.16200
O397        O  0.38866456  0.95048193  0.19049016    -0.59800
H398        H  0.36331945  0.95938894  0.14572095     0.14600
H399        H  0.30526053  0.99699480  0.09039306     0.46500
H400        H  0.43666404  0.06133019  0.12358756     0.41900
H401        H  0.37558669  0.95394407  0.20347688     0.45300
H402        H  0.43145546  0.00825811  0.06882332     0.36800
C403        C  0.75790270  0.97913593  0.01859119    -0.27500
C404        C  0.77039832  0.97988376  0.49036981     0.02100
C405        C  0.75187314  0.97500782  0.46651406     0.30200
C406        C  0.72406064  0.97234087  0.47045081    -0.19200
C407        C  0.71399286  0.97446782  0.49811970    -0.28700
C408        C  0.73005562  0.97661281  0.02204902     0.44300
C409        C  0.79954250  0.98167991  0.48678841     0.05500
O410        O  0.76080431  0.97293713  0.43917868    -0.57200
H411        H  0.71037506  0.96861402  0.45159632     0.18400
O412        O  0.71990118  0.97603422  0.04948836    -0.63900
H413        H  0.77041138  0.98006659  0.03759932     0.16800
C414        C  0.82438224  0.00587098  0.00001759     0.29100
C415        C  0.85155684  0.00658766  0.99820760    -0.24800
C416        C  0.85415941  0.98241445  0.48314085    -0.24100
C417        C  0.82774473  0.95791084  0.47281628     0.40500
C418        C  0.80086993  0.95774595  0.47468839    -0.26500
O419        O  0.82310834  0.02871791  0.01326040    -0.58400
H420        H  0.87082168  0.02493467  0.00807016     0.16200
O421        O  0.82762561  0.93351732  0.46168565    -0.59800
H422        H  0.78077020  0.93840620  0.46738887     0.14600
H423        H  0.70952113  0.95488558  0.05522462     0.46500
H424        H  0.82299981  0.02496012  0.03425977     0.41900
H425        H  0.83163483  0.93768538  0.44077600     0.45300
H426        H  0.77272928  0.99365050  0.43230665     0.36800
C427        C  0.59156967  0.98081765  0.42717590    -0.27500
C428        C  0.60645163  0.98522365  0.40088913     0.02100
C429        C  0.63353019  0.98571914  0.40008876     0.30200
C430        C  0.64544373  0.98173504  0.42555990    -0.19200
C431        C  0.63054589  0.97698658  0.45215595    -0.28700
C432        C  0.60330795  0.97671382  0.45270460     0.44300
C433        C  0.59269358  0.98823059  0.37440905     0.05500
O434        O  0.64888001  0.99097770  0.37465802    -0.57200
H435        H  0.66651180  0.98245838  0.42433412     0.18400
O436        O  0.58761210  0.97195440  0.47782045    -0.63900
H437        H  0.57051427  0.98020929  0.42782585     0.16800
C438        C  0.58099589  0.96544948  0.35372455     0.29100
C439        C  0.56441196  0.96675317  0.33073676    -0.24800
C440        C  0.55960578  0.99076581  0.32806026    -0.24100
C441        C  0.57250224  0.01421139  0.34794764     0.40500
C442        C  0.58881266  0.01275581  0.37112019    -0.26500
O443        O  0.58487550  0.94143942  0.35632471    -0.58400
H444        H  0.55466062  0.94871151  0.31535836     0.16200
O445        O  0.56921615  0.03853841  0.34479376    -0.59800
H446        H  0.59796562  0.03047273  0.38687162     0.14600
H447        H  0.59258704  0.99191834  0.48468090     0.46500
H448        H  0.56882767  0.92757218  0.36938255     0.41900
H449        H  0.55274358  0.03506124  0.35789358     0.45300
H450        H  0.64581712  0.97145599  0.36846915     0.36800
C451        C  0.57394375  0.95372532  0.15278324    -0.27500
C452        C  0.59049113  0.97739237  0.13388155     0.02100
C453        C  0.59080051  0.00428511  0.13778052     0.30200
C454        C  0.57393619  0.00694912  0.15983425    -0.19200
C455        C  0.55704121  0.98316076  0.17840327    -0.28700
C456        C  0.55740887  0.95655465  0.17509870     0.44300
C457        C  0.60487682  0.97299854  0.10838692     0.05500
O458        O  0.60610843  0.02741177  0.11904334    -0.57200
H459        H  0.57369709  0.02747196  0.16224451     0.18400
O460        O  0.54135928  0.93314986  0.19332493    -0.63900
H461        H  0.57345373  0.93289357  0.14986095     0.16800
C462        C  0.63585239  0.98805451  0.10535686     0.29100
C463        C  0.64862239  0.98561950  0.07957813    -0.24800
C464        C  0.63072178  0.96876810  0.05643221    -0.24100
C465        C  0.59972548  0.95271526  0.06010529     0.40500
C466        C  0.58707673  0.95486609  0.08594314    -0.26500
O467        O  0.65370094  0.00505743  0.12750279    -0.58400
H468        H  0.67248269  0.99791541  0.07726522     0.16200
O469        O  0.58151995  0.93517498  0.03842003    -0.59800
H470        H  0.56319492  0.94304707  0.08815559     0.14600
H471        H  0.52147759  0.92189292  0.18440309     0.46500
H472        H  0.66095012  0.02583728  0.12161418     0.41900
H473        H  0.58097811  0.91600640  0.04052855     0.45300
H474        H  0.62334676  0.04242109  0.13015757     0.36800
C475        C  0.76228437  0.75535259  0.04191514    -0.27500
C476        C  0.77563656  0.77163360  0.01685991     0.02100
C477        C  0.76567213  0.75746030  0.49022452     0.30200
C478        C  0.73830475  0.73141272  0.48812613    -0.19200
C479        C  0.72237586  0.71648394  0.01335306    -0.28700
C480        C  0.73581524  0.72815896  0.04043507     0.44300
C481        C  0.80348729  0.80041805  0.01886470     0.05500
O482        O  0.78283480  0.76879841  0.46597449    -0.57200
H483        H  0.73147187  0.72071295  0.46727902     0.18400
O484        O  0.72372469  0.71310552  0.06563529    -0.63900
H485        H  0.77229085  0.76393245  0.06278111     0.16800
C486        C  0.80587752  0.82667345  0.52362394     0.29100
C487        C  0.83333793  0.85281658  0.52250748    -0.24800
C488        C  0.85831363  0.85390648  0.01740857    -0.24100
C489        C  0.85630261  0.82799935  0.02922665     0.40500
C490        C  0.82905441  0.80157254  0.02983554    -0.26500
O491        O  0.78060669  0.82821136  0.52722610    -0.58400
H492        H  0.83407151  0.87382478  0.52481075     0.16200
O493        O  0.88091517  0.82789311  0.03936615    -0.59800
H494        H  0.82806671  0.78165067  0.03800790     0.14600
H495        H  0.71143275  0.72122632  0.07311818     0.46500
H496        H  0.77780794  0.82805949  0.54841474     0.41900
H497        H  0.88270686  0.83415197  0.05982731     0.45300
H498        H  0.77794282  0.78357062  0.45831140     0.36800
C499        C  0.62446874  0.63974707  0.40429290    -0.27500
C500        C  0.61227033  0.60890786  0.40226796     0.02100
C501        C  0.61607179  0.59358033  0.42531874     0.30200
C502        C  0.63097689  0.60878574  0.45015280    -0.19200
C503        C  0.64252823  0.63941372  0.45260667    -0.28700
C504        C  0.63980688  0.65509854  0.42920438     0.44300
C505        C  0.59418837  0.59232361  0.37696939     0.05500
O506        O  0.60438154  0.56349486  0.42422154    -0.57200
H507        H  0.63296663  0.59639395  0.46792791     0.18400
O508        O  0.65023253  0.68492210  0.43119175    -0.63900
H509        H  0.62168243  0.65181970  0.38671450     0.16800
C510        C  0.56834781  0.59305030  0.36972553     0.29100
C511        C  0.54992095  0.57493155  0.34761201    -0.24800
C512        C  0.55682187  0.55582814  0.33265376    -0.24100
C513        C  0.58277112  0.55531690  0.33956061     0.40500
C514        C  0.60134523  0.57359979  0.36148773    -0.26500
O515        O  0.56042423  0.61065429  0.38476205    -0.58400
H516        H  0.52987190  0.57531313  0.34247735     0.16200
O517        O  0.58991844  0.53676772  0.32520889    -0.59800
H518        H  0.62110015  0.57274651  0.36684996     0.14600
H519        H  0.67043841  0.69445492  0.42284008     0.46500
H520        H  0.54731981  0.59793823  0.40049115     0.41900
H521        H  0.57938413  0.51767825  0.33573034     0.45300
H522        H  0.58370111  0.55494461  0.43112202     0.36800
C523        C  0.59152762  0.59155315  0.08168691    -0.27500
C524        C  0.60416411  0.60124775  0.10897722     0.02100
C525        C  0.63309079  0.62542453  0.11120031     0.30200
C526        C  0.64890711  0.63980656  0.08622564    -0.19200
C527        C  0.63624270  0.63037862  0.05869287    -0.28700
C528        C  0.60715668  0.60580695  0.05670157     0.44300
C529        C  0.58684368  0.58564902  0.13487285     0.05500
O530        O  0.64599133  0.63529451  0.13770242    -0.57200
H531        H  0.67112416  0.65843614  0.08851570     0.18400
O532        O  0.59361761  0.59530837  0.03054650    -0.63900
H533        H  0.56937296  0.57269392  0.07973636     0.16800
C534        C  0.55966394  0.58414845  0.14076966     0.29100
C535        C  0.54260372  0.56769623  0.16433627    -0.24800
C536        C  0.55218128  0.55235311  0.18200056    -0.24100
C537        C  0.57952783  0.55414731  0.17636983     0.40500
C538        C  0.59678145  0.57089966  0.15299610    -0.26500
O539        O  0.54994820  0.59917052  0.12390299    -0.58400
H540        H  0.52163332  0.56651948  0.16863930     0.16200
O541        O  0.58934547  0.53934413  0.19340348    -0.59800
H542        H  0.61757158  0.57175314  0.14852211     0.14600
H543        H  0.58290785  0.60613977  0.02654977     0.46500
H544        H  0.53468653  0.58400106  0.11108380     0.41900
H545        H  0.58021623  0.51912612  0.18516309     0.45300
H546        H  0.63990878  0.64964160  0.14394012     0.36800
C547        C  0.21081592  0.21654066  0.02387418    -0.27500
C548        C  0.20245748  0.20462672  0.49751458     0.02100
C549        C  0.21533436  0.22515936  0.47484138     0.30200
C550        C  0.24081064  0.25240169  0.47971289    -0.19200
C551        C  0.25455265  0.25992788  0.50698970    -0.28700
C552        C  0.23721701  0.24347747  0.02803681     0.44300
C553        C  0.17544946  0.17529514  0.49261064     0.05500
O554        O  0.20356968  0.21866341  0.44756508    -0.57200
H555        H  0.25010678  0.26749152  0.46164384     0.18400
O556        O  0.24272938  0.25676591  0.05460726    -0.63900
H557        H  0.19566903  0.20645615  0.04180912     0.16800
C558        C  0.17373776  0.14887280  0.50223310     0.29100
C559        C  0.14742836  0.12176420  0.49879161    -0.24800
C560        C  0.12235243  0.12034018  0.48580120    -0.24100
C561        C  0.12471902  0.14805647  0.97624166     0.40500
C562        C  0.15166489  0.17450276  0.97965882    -0.26500
O563        O  0.19786690  0.14926660  0.51447995    -0.58400
H564        H  0.14645469  0.10195167  0.50725988     0.16200
O565        O  0.10146631  0.14898001  0.96356731    -0.59800
H566        H  0.15351183  0.19515129  0.97260495     0.14600
H567        H  0.25117527  0.24687427  0.06630250     0.46500
H568        H  0.19296312  0.14495225  0.53525197     0.41900
H569        H  0.09274144  0.15533043  0.97907316     0.46700
H570        H  0.21297767  0.20845281  0.43800977     0.36800
C571        C  0.39052243  0.41874792  0.37888734    -0.27500
C572        C  0.38801606  0.39115141  0.38430968     0.02100
C573        C  0.40144477  0.38026470  0.36536905     0.30200
C574        C  0.41777469  0.39734450  0.34172539    -0.19200
C575        C  0.42094185  0.42530254  0.33686997    -0.28700
C576        C  0.40695669  0.43585477  0.35538811     0.44300
C577        C  0.37211244  0.37442950  0.41032327     0.05500
O578        O  0.39932706  0.35335139  0.37022039    -0.57200
H579        H  0.42859006  0.38914974  0.32755445     0.18400
O580        O  0.40927367  0.46285864  0.35057097    -0.63900
H581        H  0.37993435  0.42715304  0.39310485     0.16800
C582        C  0.38147804  0.38689750  0.43786110     0.29100
C583        C  0.36597657  0.37111753  0.46230231    -0.24800
C584        C  0.34070102  0.34284686  0.45987714    -0.24100
C585        C  0.33155861  0.33026834  0.43211913     0.40500
C586        C  0.34726545  0.34610847  0.40765672    -0.26500
O587        O  0.40632654  0.41417800  0.44111493    -0.58400
H588        H  0.37379073  0.38134781  0.48322059     0.16200
O589        O  0.30725016  0.30271269  0.42847286    -0.59800
H590        H  0.33984759  0.33637924  0.38647853     0.14600
H591        H  0.42538761  0.47682879  0.36347679     0.46500
H592        H  0.39890552  0.42800239  0.44502076     0.41900
H593        H  0.31503166  0.28885003  0.42871208     0.45300
H594        H  0.41650888  0.35767585  0.38261519     0.36800
C595        C  0.33481898  0.34917032  0.11450624    -0.27500
C596        C  0.36576244  0.36693499  0.11556203     0.02100
C597        C  0.38261084  0.36874004  0.09121162     0.30200
C598        C  0.36858183  0.35352244  0.06602785    -0.19200
C599        C  0.33755358  0.33603192  0.06447521    -0.28700
C600        C  0.32066339  0.33342683  0.08928820     0.44300
C601        C  0.38074302  0.38440577  0.14162084     0.05500
O602        O  0.41289773  0.38574970  0.09170586    -0.57200
H603        H  0.38219568  0.35568560  0.04748549     0.18400
O604        O  0.29037855  0.31680321  0.08875697    -0.63900
H605        H  0.32164836  0.34764667  0.13321121     0.16800
C606        C  0.37957605  0.41006393  0.14853649     0.29100
C607        C  0.39723490  0.42864970  0.17084659    -0.24800
C608        C  0.41583662  0.42167590  0.18664397    -0.24100
C609        C  0.41617155  0.39547836  0.18043496     0.40500
C610        C  0.39888812  0.37715824  0.15787341    -0.26500
O611        O  0.36267590  0.41807113  0.13244242    -0.58400
H612        H  0.39696850  0.44886651  0.17541581     0.16200
O613        O  0.43444294  0.38842685  0.19541288    -0.59800
H614        H  0.40017619  0.35762570  0.15254522     0.14600
H615        H  0.28552528  0.29774846  0.09797561     0.46500
H616        H  0.34327607  0.40902897  0.14244194     0.41900
H617        H  0.42236105  0.37610350  0.21184093     0.45300
H618        H  0.41739472  0.40546288  0.08450310     0.36800
C619        C  0.28334167  0.28806056  0.50986939     0.80400
N620        N  0.29558113  0.29986834  0.53608365    -0.77900
C621        C  0.32230253  0.32541974  0.53745209     0.82800
N622        N  0.33930444  0.33533447  0.01177019    -0.77900
C623        C  0.32848062  0.32377664  0.98541765     0.82900
N624        N  0.30178275  0.29870287  0.98374236    -0.79600
C625        C  0.69147005  0.69100192  0.50968878     0.80400
N626        N  0.67669595  0.67566288  0.53366420    -0.77900
C627        C  0.65100437  0.64949037  0.53150571     0.82800
N628        N  0.64281245  0.63531577  0.00598951    -0.77900
C629        C  0.65723716  0.65001690  0.98182385     0.82900
N630        N  0.68283554  0.67634233  0.98415636    -0.79600
N631        N  0.49304222  0.48900109  0.80336966    -0.36400
N632        N  0.53311437  0.52500397  0.75730980    -0.57000
N633        N  0.48781925  0.48847677  0.71481690    -0.36400
N634        N  0.45010899  0.44959537  0.76076223    -0.57000
C635        C  0.51758438  0.50671503  0.81889729     0.27100
C636        C  0.47453349  0.46628446  0.82063852     0.27100
C637        C  0.51101801  0.50503170  0.69721229     0.27100
C638        C  0.46730320  0.46554872  0.69905549     0.27100
C639        C  0.54859138  0.54189258  0.78002605     0.35800
C640        C  0.54625874  0.54100492  0.73336457     0.35800
C641        C  0.43422098  0.43732242  0.78498442     0.35800
C642        C  0.43123234  0.43747241  0.73838809     0.35800
C643        C  0.51447605  0.49534868  0.84655385    -0.21700
C644        C  0.48741345  0.46980474  0.84761811    -0.21700
C645        C  0.50496274  0.49278029  0.66976465    -0.21700
C646        C  0.47744664  0.46785232  0.67093850    -0.21700
C647        C  0.57209362  0.56846992  0.77043614    -0.22800
C648        C  0.57065007  0.56788651  0.74085923    -0.22800
C649        C  0.40514694  0.41704101  0.77795769    -0.22800
C650        C  0.40323413  0.41719911  0.74841710    -0.22800
C651        C  0.54226065  0.53349074  0.80931656    -0.18100
C652        C  0.44579608  0.44316651  0.81329809    -0.18100
C653        C  0.43929013  0.44305500  0.70897010    -0.18100
C654        C  0.53705305  0.53154407  0.70476077    -0.18100
H655        H  0.53010895  0.50449831  0.86417820     0.14800
H656        H  0.47817862  0.45558746  0.86628092     0.14800
H657        H  0.51896525  0.50090733  0.65082876     0.14800
H658        H  0.46621935  0.45310295  0.65305591     0.14800
H659        H  0.58856102  0.58643158  0.78337718     0.13100
H660        H  0.58577270  0.58532599  0.72653171     0.13100
H661        H  0.38720253  0.40348837  0.79257753     0.13100
H662        H  0.38355697  0.40372323  0.73575624     0.13100
H663        H  0.48855595  0.49306922  0.78270893     0.26300
H664        H  0.48553178  0.49338716  0.73594749     0.26300
C665        C  0.68460286  0.97246900  0.50108428     0.80400
N666        N  0.66947982  0.97378241  0.97584629    -0.77900
C667        C  0.64290442  0.97250720  0.97730301     0.82800
N668        N  0.63152168  0.97015651  0.50501740    -0.77900
C669        C  0.64495307  0.96826344  0.52936589     0.82900
N670        N  0.67168828  0.96976155  0.52733281    -0.79600
C671        C  0.29294848  0.99683078  0.50182631     0.80400
N672        N  0.30756044  0.99694090  0.52614062    -0.77900
C673        C  0.33277079  0.99554477  0.52473080     0.82800
N674        N  0.34329641  0.99383373  0.49848934    -0.77900
C675        C  0.33803439  0.00678185  0.97690411     0.82900
N676        N  0.31089176  0.00444176  0.97774986    -0.79600
N677        N  0.49594881  0.99585405  0.70649758    -0.36400
N678        N  0.45654693  0.99843092  0.75032035    -0.57000
N679        N  0.49424304  0.99637886  0.79543003    -0.36400
N680        N  0.53068088  0.98892264  0.75174133    -0.57000
C681        C  0.47385235  0.99360409  0.68954380     0.27100
C682        C  0.51266366  0.98809837  0.69038243     0.27100
C683        C  0.47108215  0.99304993  0.81146485     0.27100
C684        C  0.51053759  0.98875071  0.81219309     0.27100
C685        C  0.44510291  0.00397202  0.72658928     0.35800
C686        C  0.44398868  0.00377361  0.77335444     0.35800
C687        C  0.54727257  0.99032999  0.72875412     0.35800
C688        C  0.54691655  0.99155905  0.77536779     0.35800
C689        C  0.47692381  0.98483532  0.66206182    -0.21700
C690        C  0.50139030  0.98142175  0.66259343    -0.21700
C691        C  0.47297065  0.98362167  0.83897235    -0.21700
C692        C  0.49776798  0.98079238  0.83939135    -0.21700
C693        C  0.42488752  0.01254751  0.73460928    -0.22800
C694        C  0.42411224  0.01232249  0.76423513    -0.22800
C695        C  0.57392220  0.99332859  0.73781014    -0.22800
C696        C  0.57380561  0.99434397  0.76733776    -0.22800
C697        C  0.45141927  0.99997786  0.69775825    -0.18100
C698        C  0.53832716  0.98771177  0.69968371    -0.18100
C699        C  0.53732169  0.98998161  0.80414984    -0.18100
C700        C  0.44904249  0.99956201  0.80247168    -0.18100
H701        H  0.46295198  0.98118496  0.64348196     0.14800
H702        H  0.50987222  0.97473531  0.64453882     0.14800
H703        H  0.45810155  0.97930085  0.85696123     0.14800
H704        H  0.50559321  0.97380954  0.85772942     0.14800
H705        H  0.41186268  0.01816085  0.72057885     0.13100
H706        H  0.41035785  0.01766479  0.77751605     0.13100
H707        H  0.59165279  0.99471810  0.72453834     0.13100
H708        H  0.59148118  0.99667876  0.78125849     0.13100
H709        H  0.50004266  0.00347682  0.72752933     0.26300
H710        H  0.49965245  0.00501238  0.77476641     0.26300
C711        C  0.97932427  0.27840033  0.49320072     0.80400
N712        N  0.97959077  0.28973509  0.96643732    -0.77900
C713        C  0.97625537  0.31390332  0.96368363     0.82800
N714        N  0.97091065  0.32538584  0.48761010    -0.77900
C715        C  0.97221065  0.31565010  0.51438035     0.82900
N716        N  0.97637236  0.29206384  0.51698281    -0.79600
C717        C  0.97880493  0.68243749  0.49266696     0.80400
N718        N  0.98475046  0.67090519  0.96957073    -0.77900
C719        C  0.98009298  0.64287998  0.97106665     0.82800
N720        N  0.97186214  0.62739876  0.49634538    -0.77900
C721        C  0.96869210  0.64028608  0.52045879     0.82900
N722        N  0.97229328  0.66797149  0.51856776    -0.79600
N723        N  0.96064606  0.47485922  0.69831249    -0.36400
N724        N  0.96105466  0.51176150  0.74580516    -0.57000
N725        N  0.96732604  0.47212143  0.78650700    -0.36400
N726        N  0.96215271  0.43284785  0.73924452    -0.57000
C727        C  0.95342332  0.49300134  0.68404477     0.27100
C728        C  0.95481635  0.45201665  0.68051883     0.27100
C729        C  0.96310922  0.48982779  0.80489903     0.27100
C730        C  0.96243983  0.44776559  0.80146200     0.27100
C731        C  0.96339629  0.52948011  0.72341034     0.35800
C732        C  0.96784332  0.52849274  0.76994296     0.35800
C733        C  0.96546800  0.42122236  0.71440137     0.35800
C734        C  0.96777948  0.41913253  0.76103703     0.35800
C735        C  0.94305900  0.48160522  0.65675204    -0.21700
C736        C  0.94394939  0.45579093  0.65452839    -0.21700
C737        C  0.95567943  0.47666895  0.83195083    -0.21700
C738        C  0.95529237  0.45019969  0.82979873    -0.21700
C739        C  0.97117507  0.55744997  0.73340908    -0.22800
C740        C  0.97414078  0.55688202  0.76284744    -0.22800
C741        C  0.97288655  0.39973143  0.72046096    -0.22800
C742        C  0.97421550  0.39831741  0.75001721    -0.22800
C743        C  0.95773737  0.52051584  0.69415808    -0.18100
C744        C  0.96051549  0.42869235  0.68638861    -0.18100
C745        C  0.96577641  0.42414219  0.79075119    -0.18100
C746        C  0.96721029  0.51820734  0.79841504    -0.18100
H747        H  0.93589862  0.49106725  0.64000554     0.14800
H748        H  0.93753180  0.44153005  0.63577990     0.14800
H749        H  0.95114457  0.48531294  0.85132307     0.14800
H750        H  0.95049726  0.43463207  0.84723474     0.14800
H751        H  0.97447442  0.57632435  0.72080562     0.13100
H752        H  0.98020515  0.57529852  0.77734240     0.13100
H753        H  0.97670190  0.38629117  0.70519997     0.13100
H754        H  0.97927542  0.38361390  0.76201337     0.13100
H755        H  0.97076884  0.47876919  0.71829707     0.26300
H756        H  0.97484846  0.47727432  0.76544271     0.26300
O757        O  0.02602998  0.03680217  0.51898412    -0.88200
C758        C  0.96354832  0.01470870  0.95459758     0.87800
Mg759      Mg  0.06045336  0.02554812  0.51872421     1.58100
O760        O  0.93864160  0.97179870  0.51885586    -0.87900
O761        O  0.98962980  0.03160534  0.54636115    -0.75200
C762        C  0.99324154  0.88382739  0.98051913     0.92900
O763        O  0.03433925  0.03208566  0.94993047    -0.75100
O764        O  0.01772112  0.90768072  0.97654087    -0.82600
Mg765      Mg  0.02059480  0.05786948  0.98036813     1.58000
C766        C  0.88790440  0.87983007  0.51332719     0.92800
O767        O  0.00927403  0.08874825  0.50307717    -0.80800
H768        H  0.93239973  0.96979789  0.56157258    -0.06200
C769        C  0.96233977  0.93645322  0.95242315     0.87800
O770        O  0.03337691  0.98511014  0.54751437    -0.75300
O771        O  0.97467632  0.02358640  0.97864429    -0.88100
O772        O  0.88754718  0.90316630  0.50588145    -0.80900
C773        C  0.88182555  0.98269927  0.98715810     0.92900
C774        C  0.98562128  0.08892908  0.50969554     0.92800
Mg775      Mg  0.95941787  0.91536314  0.51671068     1.58000
O776        O  0.97007686  0.88421430  0.98875209    -0.80800
O777        O  0.94625107  0.94223658  0.54650799    -0.75100
O778        O  0.90544943  0.00606416  0.99481580    -0.80900
O779        O  0.06896166  0.09398613  0.98255210    -0.82600
O780        O  0.07331690  0.96657559  0.50412167    -0.80900
C781        C  0.93851455  0.96155071  0.54294597     0.87200
O782        O  0.00469883  0.94922627  0.51835525    -0.88100
O783        O  0.95295358  0.93666537  0.97687124    -0.88200
O784        O  0.98912578  0.94356969  0.94803466    -0.75200
Mg785      Mg  0.94953168  0.01724832  0.51653119     1.58000
O786        O  0.88148989  0.95848070  0.98285711    -0.82600
H787        H  0.03115359  0.04572638  0.56123747    -0.06300
O788        O  0.04136553  0.00159723  0.97662988    -0.87900
H789        H  0.04900791  0.00547574  0.93412802    -0.06200
H790        H  0.00609223  0.94290943  0.56073318    -0.06400
C791        C  0.04224623  0.01287045  0.95294097     0.87200
C792        C  0.01648382  0.03865090  0.54282090     0.87800
C793        C  0.01456532  0.95817680  0.54277772     0.87800
H794        H  0.94754244  0.93075852  0.93420287    -0.06300
O795        O  0.94379477  0.98792685  0.95042974    -0.75400
Mg796      Mg  0.02997666  0.95603904  0.97628608     1.58000
H797        H  0.97130909  0.02990517  0.93656352    -0.06300
C798        C  0.09265993  0.09317841  0.98664079     0.92800
O799        O  0.09649983  0.01359780  0.51833234    -0.82600
C800        C  0.09637363  0.98955716  0.51337539     0.92900
O801        O  0.96125536  0.06503280  0.51356866    -0.82600
Mg802      Mg  0.91816877  0.94737511  0.97991527     1.58200
O803        O  0.09209126  0.06934595  0.99377852    -0.80900
O804        O  0.91192682  0.87948701  0.51581779    -0.82600
C805        C  0.96592060  0.80097649  0.98254643    -0.27500
C806        C  0.99265522  0.80067985  0.98208121     0.02100
C807        C  0.01600913  0.82446809  0.48485446     0.30200
C808        C  0.01747360  0.85200630  0.48339315    -0.19200
C809        C  0.99229491  0.85483253  0.97785246    -0.28700
C810        C  0.96551712  0.82756930  0.98043361     0.44300
C811        C  0.99226091  0.77212056  0.98601287     0.05500
O812        O  0.04144349  0.82350300  0.48956147    -0.57200
H813        H  0.03875581  0.87187242  0.48627644     0.18400
O814        O  0.93879546  0.82657705  0.98188247    -0.63900
H815        H  0.94515425  0.78040747  0.98487791     0.16800
C816        C  0.96987490  0.74924312  0.50801554     0.29100
C817        C  0.96807827  0.72157251  0.51043232    -0.24800
C818        C  0.98808617  0.71584174  0.99136023    -0.24100
C819        C  0.00194654  0.73411433  0.96704482     0.40500
C820        C  0.00393290  0.76186984  0.96459639    -0.26500
O821        O  0.95624189  0.75748163  0.52832085    -0.58400
H822        H  0.95530677  0.70703721  0.52798137     0.16200
O823        O  0.01346309  0.72508871  0.94530493    -0.59800
H824        H  0.01408988  0.77518931  0.94553479     0.14600
H825        H  0.93158373  0.82366610  0.96168921     0.46500
H826        H  0.93520903  0.74780531  0.52230921     0.41900
H827        H  0.03396839  0.73136529  0.95143982     0.45300
H828        H  0.04365800  0.82394704  0.51084790     0.36800
C829        C  0.99775812  0.56693110  0.86500864    -0.27500
C830        C  0.97582086  0.57437112  0.87048559     0.02100
C831        C  0.95117769  0.56356656  0.85194212     0.30200
C832        C  0.94865243  0.54550506  0.82848350    -0.19200
C833        C  0.97054923  0.53802080  0.82306926    -0.28700
C834        C  0.99533671  0.54905288  0.84143134     0.44300
C835        C  0.97832834  0.59266154  0.89603886     0.05500
O836        O  0.92918528  0.57012098  0.85687857    -0.57200
H837        H  0.92941958  0.53705270  0.81460430     0.18400
O838        O  0.01714818  0.54220375  0.83663961    -0.63900
H839        H  0.01686992  0.57511656  0.87902460     0.16800
C840        C  0.98003701  0.58322613  0.92404128     0.29100
C841        C  0.98123719  0.60010905  0.94800455    -0.24800
C842        C  0.98057564  0.62661552  0.94477002    -0.24100
C843        C  0.97927293  0.63622040  0.91654624     0.40500
C844        C  0.97820915  0.61930361  0.89255704    -0.26500
O845        O  0.97989575  0.55714993  0.92828431    -0.58400
H846        H  0.98233215  0.59208992  0.96927124     0.16200
O847        O  0.97860146  0.66182487  0.91200869    -0.59800
H848        H  0.97704712  0.62691073  0.87109711     0.14600
H849        H  0.03049398  0.55685017  0.82219177     0.46500
H850        H  0.95868818  0.54167279  0.92903980     0.41900
H851        H  0.95731878  0.65580948  0.91217541     0.45300
H852        H  0.91525642  0.55457117  0.87032452     0.36800
C853        C  0.98316319  0.57756731  0.63408366    -0.27500
C854        C  0.95682099  0.57694731  0.62663978     0.02100
C855        C  0.93092629  0.55891768  0.64264949     0.30200
C856        C  0.93155603  0.54143451  0.66541879    -0.19200
C857        C  0.95780064  0.54150492  0.67226756    -0.28700
C858        C  0.98370156  0.55984184  0.65650497     0.44300
C859        C  0.95643036  0.59343690  0.60068520     0.05500
O860        O  0.90480068  0.55767471  0.63571550    -0.57200
H861        H  0.91140116  0.52716427  0.67720045     0.18400
O862        O  0.00954717  0.56013458  0.66258201    -0.63900
H863        H  0.00316140  0.59109176  0.62177079     0.16800
C864        C  0.97136436  0.62458745  0.60023528     0.29100
C865        C  0.97381182  0.63973757  0.57436025    -0.24800
C866        C  0.96223065  0.62415860  0.54844685    -0.24100
C867        C  0.94633397  0.59284964  0.54928644     0.40500
C868        C  0.94347716  0.57783565  0.57522445    -0.26500
O869        O  0.98391164  0.64038741  0.62494345    -0.58400
H870        H  0.98602381  0.66370854  0.57432565     0.16200
O871        O  0.93409074  0.57659212  0.52472070    -0.59800
H872        H  0.93204159  0.55386081  0.57523443     0.14600
H873        H  0.00944200  0.54477513  0.64989908     0.46500
H874        H  0.00464361  0.64454338  0.62467593     0.41900
H875        H  0.91407561  0.57426811  0.52344810     0.45300
H876        H  0.90509027  0.57425913  0.64643613     0.36800
C877        C  0.99468345  0.22003681  0.52529522    -0.27500
C878        C  0.98776440  0.20060005  0.50201193     0.02100
C879        C  0.97626707  0.20585317  0.97803402     0.30200
C880        C  0.97541879  0.23208113  0.97448612    -0.19200
C881        C  0.98325195  0.25215820  0.49635431    -0.28700
C882        C  0.99251226  0.24562166  0.52269793     0.44300
C883        C  0.98778620  0.17252637  0.50593143     0.05500
O884        O  0.96652344  0.18544599  0.95613668    -0.57200
H885        H  0.96694663  0.23559314  0.95444681     0.18400
O886        O  0.99923237  0.26382332  0.54621554    -0.63900
H887        H  0.00126904  0.21504688  0.54574910     0.16800
C888        C  0.01332277  0.17177929  0.00846302     0.29100
C889        C  0.01270844  0.14473052  0.01100770    -0.24800
C890        C  0.98624800  0.11776356  0.51099557    -0.24100
C891        C  0.95981334  0.11906509  0.51215963     0.40500
C892        C  0.96079967  0.14623346  0.50938174    -0.26500
O893        O  0.03987096  0.19727491  0.00434463    -0.58400
H894        H  0.03341846  0.14469977  0.00982333     0.16200
O895        O  0.93269822  0.09386825  0.51457694    -0.59800
H896        H  0.94030930  0.14676084  0.50959627     0.14600
H897        H  0.02072108  0.27815572  0.54454169     0.46500
H898        H  0.04699047  0.20511459  0.02400122     0.41900
H899        H  0.92801442  0.09184691  0.53549522     0.45300
H900        H  0.98452267  0.19000169  0.94494379     0.36800
C901        C  0.96164464  0.33433401  0.59171535    -0.27500
C902        C  0.96406528  0.36213124  0.58793292     0.02100
C903        C  0.96903406  0.37439195  0.56004263     0.30200
C904        C  0.97150854  0.35895945  0.53653559    -0.19200
C905        C  0.96931095  0.33112877  0.54014507    -0.28700
C906        C  0.96429875  0.31887728  0.56820503     0.44300
C907        C  0.96272233  0.37878533  0.61331407     0.05500
O908        O  0.97173674  0.40161041  0.55553210    -0.57200
H909        H  0.97548116  0.36912079  0.51539069     0.18400
O910        O  0.96232056  0.29204753  0.57310891    -0.63900
H911        H  0.95826140  0.32480578  0.61312119     0.16800
C912        C  0.93798695  0.36668524  0.63190479     0.29100
C913        C  0.93743146  0.38300343  0.65573148    -0.24800
C914        C  0.96148515  0.41124685  0.66146454    -0.24100
C915        C  0.98628530  0.42318116  0.64309966     0.40500
C916        C  0.98673007  0.40706557  0.61917560    -0.26500
O917        O  0.91383810  0.33948096  0.62627281    -0.58400
H918        H  0.91815348  0.37373834  0.66965447     0.16200
O919        O  0.01013517  0.45068846  0.64832125    -0.59800
H920        H  0.00604319  0.41654526  0.60528892     0.14600
H921        H  0.94086870  0.27735409  0.57239694     0.46500
H922        H  0.91516546  0.32574308  0.64016760     0.41900
H923        H  0.02235786  0.44737503  0.66255893     0.45300
H924        H  0.95126073  0.39758719  0.55240857     0.36800
C925        C  0.98552993  0.33689376  0.88432337    -0.27500
C926        C  0.96929105  0.35173452  0.88335655     0.02100
C927        C  0.95415692  0.35231756  0.90824401     0.30200
C928        C  0.95603347  0.33909097  0.93372887    -0.19200
C929        C  0.97278743  0.32482555  0.93515526    -0.28700
C930        C  0.98714298  0.32324821  0.90993958     0.44300
C931        C  0.96912252  0.36796496  0.85706851     0.05500
O932        O  0.93802505  0.36649729  0.90810310    -0.57200
H933        H  0.94454325  0.34039279  0.95267300     0.18400
O934        O  0.00342604  0.30924064  0.91023992    -0.63900
H935        H  0.99722110  0.33619034  0.86527678     0.16800
C936        C  0.99525262  0.39299031  0.84730877     0.29100
C937        C  0.99406746  0.41042970  0.82487996    -0.24800
C938        C  0.96696387  0.40345601  0.81215072    -0.24100
C939        C  0.94091841  0.37818298  0.82151595     0.40500
C940        C  0.94213166  0.36053780  0.84368734    -0.26500
O941        O  0.02181075  0.40136640  0.86049098    -0.58400
H942        H  0.01419173  0.43004983  0.81806937     0.16200
O943        O  0.91409677  0.37112166  0.80970922    -0.59800
H944        H  0.92180367  0.34155435  0.85116434     0.14600
H945        H  0.02355678  0.32455763  0.91637027     0.46500
H946        H  0.02391184  0.41590472  0.87543320     0.41900
H947        H  0.90605066  0.38074474  0.82237304     0.45300
H948        H  0.95233358  0.38735154  0.91314187     0.36800
C949        C  0.22308247  0.99485447  0.98189681    -0.27500
C950        C  0.21024237  0.99598435  0.51191530     0.02100
C951        C  0.22895924  0.00121576  0.53568490     0.30200
C952        C  0.25589842  0.00189149  0.53185806    -0.19200
C953        C  0.26483711  0.99745627  0.50447663    -0.28700
C954        C  0.25080580  0.99682459  0.97965154     0.44300
C955        C  0.18072468  0.99331820  0.51525931     0.05500
O956        O  0.22030419  0.00387956  0.56298531    -0.57200
H957        H  0.26959191  0.00551368  0.55067342     0.18400
O958        O  0.26124480  0.99590064  0.95272018    -0.63900
H959        H  0.21075221  0.99272044  0.96237242     0.16800
C960        C  0.17788383  0.01555316  0.02403732     0.29100
C961        C  0.15004898  0.01346618  0.02419531    -0.24800
C962        C  0.12448145  0.98906052  0.51645492    -0.24100
C963        C  0.12798671  0.96617001  0.50423498     0.40500
C964        C  0.15578995  0.96834031  0.50402734    -0.26500
O965        O  0.20140945  0.03975588  0.03641243    -0.58400
H966        H  0.14788412  0.03088845  0.03455827     0.16200
O967        O  0.10474489  0.94205084  0.49140474    -0.59800
H968        H  0.15805138  0.95071199  0.49425311     0.14600
H969        H  0.25334654  0.97458854  0.94867790     0.46500
H970        H  0.21042275  0.05444642  0.02060769     0.41900
H971        H  0.10601720  0.94723774  0.47064541     0.45300
H972        H  0.23430973  0.02451083  0.56901676     0.36800
C973        C  0.39810415  0.02150834  0.92223821    -0.27500
C974        C  0.38161139  0.00828148  0.89724198     0.02100
C975        C  0.35059139  0.99575777  0.89816668     0.30200
C976        C  0.33661519  0.99614972  0.92394070    -0.19200
C977        C  0.35316618  0.00882165  0.94913889    -0.28700
C978        C  0.38428007  0.02199401  0.94788866     0.44300
C979        C  0.39719259  0.00671483  0.87098039     0.05500
O980        O  0.33369747  0.98277103  0.87413200    -0.57200
H981        H  0.31271883  0.98583718  0.92437398     0.18400
O982        O  0.40156014  0.03596864  0.97148418    -0.63900
H983        H  0.42190038  0.03093963  0.92216093     0.16800
C984        C  0.42271044  0.03204360  0.86049469     0.29100
C985        C  0.43893623  0.02950217  0.83767904    -0.24800
C986        C  0.43013668  0.00194829  0.82506433    -0.24100
C987        C  0.40426131  0.97679443  0.83484081     0.40500
C988        C  0.38796688  0.97926163  0.85764611    -0.26500
O989        O  0.43158625  0.05942604  0.87210582    -0.58400
H990        H  0.45871531  0.04902093  0.83006633     0.16200
O991        O  0.39505962  0.94968469  0.82249083    -0.59800
H992        H  0.36867533  0.95948378  0.86558977     0.14600
H993        H  0.40717935  0.02186219  0.97952787     0.46500
H994        H  0.45034905  0.06512999  0.88239523     0.41900
H995        H  0.40286565  0.93987833  0.83518158     0.45300
H996        H  0.33315860  0.99905128  0.86364975     0.36800
C997        C  0.35487690  0.99829432  0.60364124    -0.27500
C998        C  0.38260245  0.00043814  0.60079029     0.02100
C999        C  0.39349111  0.00016093  0.57309714     0.30200
C1000       C  0.37683389  0.99813655  0.54870347    -0.19200
C1001       C  0.34920668  0.99656371  0.55130765    -0.28700
C1002       C  0.33817136  0.99634946  0.57927549     0.44300
C1003       C  0.39952798  0.00182410  0.62687291     0.05500
O1004       O  0.41982142  0.00056694  0.56975637    -0.57200
H1005       H  0.38580669  0.99792828  0.52766868     0.18400
O1006       O  0.31125000  0.99447049  0.58323616    -0.63900
H1007       H  0.34618702  0.99823660  0.62491256     0.16800
C1008       C  0.42840325  0.02561135  0.63144414     0.29100
C1009       C  0.44486023  0.02515742  0.65502326    -0.24800
C1010       C  0.43265701  0.00139916  0.67449803    -0.24100
C1011       C  0.40327900  0.97839653  0.67080978     0.40500
C1012       C  0.38693260  0.97866620  0.64702615    -0.26500
O1013       O  0.44082359  0.04919731  0.61281312    -0.58400
H1014       H  0.46736261  0.04311527  0.65792182     0.16200
O1015       O  0.39093940  0.95493628  0.68959947    -0.59800
H1016       H  0.36466690  0.96034679  0.64385026     0.14600
H1017       H  0.29679195  0.97299183  0.58468351     0.46500
H1018       H  0.43359136  0.06252875  0.61941017     0.41900
H1019       H  0.37813484  0.95883999  0.70254611     0.45300
H1020       H  0.43382849  0.02037968  0.56175539     0.36800
C1021       C  0.76054189  0.98200363  0.51800502    -0.27500
C1022       C  0.76946911  0.98000594  0.99102559     0.02100
C1023       C  0.75271444  0.97830906  0.96661260     0.30200
C1024       C  0.72494026  0.97589429  0.96995897    -0.19200
C1025       C  0.71319601  0.97515511  0.99758344    -0.28700
C1026       C  0.73260346  0.97917652  0.52205383     0.44300
C1027       C  0.79875140  0.98204947  0.98804273     0.05500
O1028       O  0.76337781  0.97919649  0.93933238    -0.57200
H1029       H  0.71267626  0.97472728  0.95068504     0.18400
O1030       O  0.72415493  0.98175796  0.54943668    -0.63900
H1031       H  0.77442725  0.98544640  0.53663552     0.16800
C1032       C  0.82588141  0.00658015  0.49616432     0.29100
C1033       C  0.85288636  0.00696197  0.49403242    -0.24800
C1034       C  0.85364288  0.98335266  0.98508850    -0.24100
C1035       C  0.82791416  0.95983456  0.97249011     0.40500
C1036       C  0.80090012  0.95942533  0.97395317    -0.26500
O1037       O  0.82545813  0.03076423  0.50717796    -0.58400
H1038       H  0.87270309  0.02616874  0.50200025     0.16200
O1039       O  0.82858821  0.93663161  0.95937762    -0.59800
H1040       H  0.78131534  0.94089178  0.96472312     0.14600
H1041       H  0.71486714  0.96153035  0.55770453     0.46500
H1042       H  0.82716476  0.02952260  0.52839033     0.41900
H1043       H  0.83578566  0.94355624  0.93949563     0.45300
H1044       H  0.77623551  0.00052777  0.93491485     0.36800
C1045       C  0.59144581  0.98198479  0.92579276    -0.27500
C1046       C  0.60378071  0.98180651  0.89900085     0.02100
C1047       C  0.62858498  0.97806310  0.89782862     0.30200
C1048       C  0.64083251  0.97472267  0.92344723    -0.19200
C1049       C  0.62858472  0.97493602  0.95052338    -0.28700
C1050       C  0.60354440  0.97864023  0.95139242     0.44300
C1051       C  0.58989038  0.98517209  0.87267682     0.05500
O1052       O  0.64173188  0.97897800  0.87187775    -0.57200
H1053       H  0.66014638  0.97217769  0.92199051     0.18400
O1054       O  0.59060268  0.97910721  0.97701509    -0.63900
H1055       H  0.57217526  0.98466731  0.92685396     0.16800
C1056       C  0.57653591  0.96208953  0.85237951     0.29100
C1057       C  0.55962649  0.96393526  0.82998813    -0.24800
C1058       C  0.55614822  0.98879222  0.82739685    -0.24100
C1059       C  0.57049615  0.01238398  0.84694256     0.40500
C1060       C  0.58714788  0.01041891  0.86950282    -0.26500
O1061       O  0.57908947  0.93727988  0.85476060    -0.58400
H1062       H  0.54881969  0.94578787  0.81483222     0.16200
O1063       O  0.56843307  0.03743670  0.84397986    -0.59800
H1064       H  0.59747937  0.02836963  0.88493079     0.14600
H1065       H  0.59981446  0.00033688  0.98220516     0.46500
H1066       H  0.56354763  0.92431565  0.86871519     0.41900
H1067       H  0.55269565  0.03490260  0.85764742     0.45300
H1068       H  0.63746336  0.95846657  0.86838441     0.36800
C1069       C  0.56967430  0.95195048  0.65054635    -0.27500
C1070       C  0.59135980  0.97652143  0.63524084     0.02100
C1071       C  0.59639099  0.00498569  0.64214138     0.30200
C1072       C  0.57893176  0.00834962  0.66312731    -0.19200
C1073       C  0.55674908  0.98367574  0.67772664    -0.28700
C1074       C  0.55255269  0.95541779  0.67179333     0.44300
C1075       C  0.60576452  0.97180211  0.60978573     0.05500
O1076       O  0.61691203  0.02934318  0.62713200    -0.57200
H1077       H  0.58245292  0.03021669  0.66780680     0.18400
O1078       O  0.53161818  0.93110283  0.68653227    -0.63900
H1079       H  0.56558653  0.92994671  0.64551369     0.16800
C1080       C  0.63675751  0.98545108  0.60717525     0.29100
C1081       C  0.64937418  0.98277095  0.58135217    -0.24800
C1082       C  0.63140784  0.96694662  0.55783520    -0.24100
C1083       C  0.60039899  0.95184728  0.56123210     0.40500
C1084       C  0.58786806  0.95439295  0.58697950    -0.26500
O1085       O  0.65473474  0.00101348  0.62986714    -0.58400
H1086       H  0.67325553  0.99413640  0.57932831     0.16200
O1087       O  0.58207875  0.93489325  0.53933539    -0.59800
H1088       H  0.56398150  0.94345228  0.58880549     0.14600
H1089       H  0.51359059  0.92286191  0.67437973     0.46500
H1090       H  0.66617782  0.02186243  0.62325409     0.41900
H1091       H  0.57845785  0.91462487  0.54298751     0.45300
H1092       H  0.63293705  0.04105167  0.64114953     0.36800
C1093       C  0.75747352  0.75994488  0.54138874    -0.27500
C1094       C  0.77539270  0.77178948  0.51697429     0.02100
C1095       C  0.76263866  0.76006391  0.98989576     0.30200
C1096       C  0.73640003  0.73273127  0.98827062    -0.19200
C1097       C  0.72012385  0.71916509  0.51254910    -0.28700
C1098       C  0.73003693  0.73389678  0.53941746     0.44300
C1099       C  0.80423262  0.79924855  0.51932570     0.05500
O1100       O  0.77612077  0.77483269  0.96491687    -0.57200
H1101       H  0.72703080  0.72437661  0.96716339     0.18400
O1102       O  0.71329422  0.72314406  0.56398467    -0.63900
H1103       H  0.76485455  0.77090694  0.56207957     0.16800
C1104       C  0.80499780  0.82657434  0.00883605     0.29100
C1105       C  0.83218859  0.85297556  0.00808883    -0.24800
C1106       C  0.85950058  0.85194220  0.51772161    -0.24100
C1107       C  0.85774821  0.82412776  0.51483649     0.40500
C1108       C  0.83023393  0.79814986  0.51540036    -0.26500
O1109       O  0.78014176  0.82639399  0.99896909    -0.58400
H1110       H  0.83289241  0.87251477  0.99920696     0.16200
O1111       O  0.88249483  0.82205732  0.50947082    -0.59800
H1112       H  0.82910031  0.77705741  0.51206847     0.14600
H1113       H  0.70050141  0.73216775  0.56435317     0.46500
H1114       H  0.76948547  0.82675101  0.01656319     0.41900
H1115       H  0.88910832  0.81922919  0.52866661     0.45300
H1116       H  0.76378507  0.78298550  0.95767682     0.36800
C1117       C  0.62542191  0.63666062  0.90611502    -0.27500
C1118       C  0.61509386  0.60622836  0.90302253     0.02100
C1119       C  0.62022663  0.59102094  0.92529265     0.30200
C1120       C  0.63497909  0.60601255  0.95030020    -0.19200
C1121       C  0.64503245  0.63628777  0.95362400    -0.28700
C1122       C  0.64054754  0.65178966  0.93116898     0.44300
C1123       C  0.59779226  0.58991824  0.87727958     0.05500
O1124       O  0.61008352  0.56124311  0.92321128    -0.57200
H1125       H  0.63810551  0.59375870  0.96748880     0.18400
O1126       O  0.64901792  0.68110029  0.93428513    -0.63900
H1127       H  0.62141773  0.64857625  0.88922254     0.16800
C1128       C  0.57082510  0.58858908  0.87064067     0.29100
C1129       C  0.55339400  0.57077229  0.84790185    -0.24800
C1130       C  0.56241512  0.55400839  0.83167605    -0.24100
C1131       C  0.58957312  0.55570562  0.83787466     0.40500
C1132       C  0.60712403  0.57366102  0.86050644    -0.26500
O1133       O  0.56083562  0.60378833  0.88687853    -0.58400
H1134       H  0.53240386  0.56942896  0.84332271     0.16200
O1135       O  0.59885650  0.53955255  0.82222376    -0.59800
H1136       H  0.62780492  0.57446179  0.86538772     0.14600
H1137       H  0.66976598  0.69212521  0.92732672     0.46500
H1138       H  0.54887078  0.58996108  0.90252030     0.41900
H1139       H  0.58995528  0.52005373  0.83201068     0.45300
H1140       H  0.58937101  0.55145832  0.93029041     0.36800
C1141       C  0.59125147  0.59300363  0.58114555    -0.27500
C1142       C  0.60467296  0.60237962  0.60815019     0.02100
C1143       C  0.63327739  0.62702938  0.61010326     0.30200
C1144       C  0.64814802  0.64215972  0.58504871    -0.19200
C1145       C  0.63480932  0.63292765  0.55773971    -0.28700
C1146       C  0.60598840  0.60792189  0.55605061     0.44300
C1147       C  0.58851708  0.58586325  0.63404888     0.05500
O1148       O  0.64682499  0.63647256  0.63640727    -0.57200
H1149       H  0.67020857  0.66110891  0.58709240     0.18400
O1150       O  0.59195631  0.59755481  0.53008051    -0.63900
H1151       H  0.56924765  0.57384163  0.57951807     0.16800
C1152       C  0.56292360  0.58608273  0.64313897     0.29100
C1153       C  0.54662523  0.56863360  0.66654538    -0.24800
C1154       C  0.55554760  0.55079828  0.68091826    -0.24100
C1155       C  0.58136079  0.55085595  0.67209611     0.40500
C1156       C  0.59778915  0.56847149  0.64878839    -0.26500
O1157       O  0.55406813  0.60370014  0.62956343    -0.58400
H1158       H  0.52684395  0.56878029  0.67338896     0.16200
O1159       O  0.59053936  0.53368532  0.68602285    -0.59800
H1160       H  0.61740485  0.56809575  0.64177116     0.14600
H1161       H  0.57995637  0.60725192  0.52728643     0.46500
H1162       H  0.53834518  0.59044045  0.61593741     0.41900
H1163       H  0.57830178  0.51354796  0.67787385     0.45300
H1164       H  0.64120600  0.65099259  0.64324109     0.36800
C1165       C  0.21533920  0.21246614  0.52512763    -0.27500
C1166       C  0.20377645  0.20277753  0.99674779     0.02100
C1167       C  0.22326508  0.21613402  0.97356498     0.30200
C1168       C  0.24958545  0.24286163  0.97761196    -0.19200
C1169       C  0.25715118  0.25692979  0.00479010    -0.28700
C1170       C  0.24121681  0.23971410  0.52995672     0.44300
C1171       C  0.17592799  0.17454138  0.99257495     0.05500
O1172       O  0.21667464  0.20325779  0.94675660    -0.57200
H1173       H  0.26419717  0.25240173  0.95924604     0.18400
O1174       O  0.25325961  0.24608911  0.55710469    -0.63900
H1175       H  0.20531844  0.19738326  0.54309153     0.16800
C1176       C  0.17365439  0.14763103  0.00086969     0.29100
C1177       C  0.14687320  0.12114039  0.99729052    -0.24800
C1178       C  0.12183918  0.12098983  0.98565818    -0.24100
C1179       C  0.12478785  0.14659870  0.47459146     0.40500
C1180       C  0.15097618  0.17367722  0.47827952    -0.26500
O1181       O  0.19760458  0.14701742  0.01221633    -0.58400
H1182       H  0.14554120  0.10078818  0.00457211     0.16200
O1183       O  0.10171874  0.14613910  0.45998514    -0.59800
H1184       H  0.15179685  0.19364435  0.47052695     0.14600
H1185       H  0.26597793  0.23700488  0.55809790     0.46500
H1186       H  0.19500687  0.14668346  0.03344710     0.41900
H1187       H  0.09226254  0.15318262  0.47403630     0.46700
H1188       H  0.22364622  0.18874072  0.94708303     0.36800
C1189       C  0.39692952  0.41632584  0.87967802    -0.27500
C1190       C  0.39389703  0.38830932  0.88390387     0.02100
C1191       C  0.40673034  0.37769778  0.86390788     0.30200
C1192       C  0.42304539  0.39544831  0.84054677    -0.19200
C1193       C  0.42676718  0.42379602  0.83693790    -0.28700
C1194       C  0.41330970  0.43406859  0.85644004     0.44300
C1195       C  0.37800697  0.37089469  0.90974370     0.05500
O1196       O  0.40398105  0.35034194  0.86737956    -0.57200
H1197       H  0.43333399  0.38738878  0.82554663     0.18400
O1198       O  0.41591915  0.46134287  0.85275825    -0.63900
H1199       H  0.38672418  0.42453974  0.89460385     0.16800
C1200       C  0.38748539  0.38267384  0.93751592     0.29100
C1201       C  0.37154695  0.36674116  0.96176943    -0.24800
C1202       C  0.34564671  0.33899423  0.95899056    -0.24100
C1203       C  0.33662983  0.32687284  0.93101359     0.40500
C1204       C  0.35279134  0.34285603  0.90673265    -0.26500
O1205       O  0.41273893  0.40955582  0.94116691    -0.58400
H1206       H  0.37940259  0.37656591  0.98282778     0.16200
O1207       O  0.31181853  0.29977028  0.92694232    -0.59800
H1208       H  0.34527007  0.33357196  0.88541823     0.14600
H1209       H  0.43293341  0.47499876  0.86495781     0.46500
H1210       H  0.40581714  0.42367513  0.94564751     0.41900
H1211       H  0.31904416  0.28546086  0.92632500     0.45300
H1212       H  0.42144805  0.35388629  0.87891554     0.36800
C1213       C  0.33739398  0.34674771  0.61730684    -0.27500
C1214       C  0.36642110  0.37071618  0.61572687     0.02100
C1215       C  0.38098399  0.37878130  0.58903347     0.30200
C1216       C  0.36645039  0.36329394  0.56420499    -0.19200
C1217       C  0.33697881  0.33962012  0.56519275    -0.28700
C1218       C  0.32258951  0.33117114  0.59226146     0.44300
C1219       C  0.38174654  0.38773451  0.64173840     0.05500
O1220       O  0.40970954  0.40155532  0.58710087    -0.57200
H1221       H  0.37851050  0.37021632  0.54401119     0.18400
O1222       O  0.29389559  0.30851922  0.59447258    -0.63900
H1223       H  0.32607705  0.34041590  0.63792505     0.16800
C1224       C  0.38628888  0.41642087  0.64589571     0.29100
C1225       C  0.40421661  0.43392388  0.66852506    -0.24800
C1226       C  0.41784069  0.42312001  0.68707307    -0.24100
C1227       C  0.41273425  0.39417992  0.68332845     0.40500
C1228       C  0.39470314  0.37662792  0.66073919    -0.26500
O1229       O  0.37438068  0.42795752  0.62713598    -0.58400
H1230       H  0.40825294  0.45627273  0.67112515     0.16200
O1231       O  0.42675617  0.38363647  0.70055324    -0.59800
H1232       H  0.39178078  0.35479018  0.65732390     0.14600
H1233       H  0.29534175  0.29067907  0.59877019     0.46500
H1234       H  0.35449029  0.42194601  0.63502564     0.41900
H1235       H  0.41239054  0.37240563  0.71609663     0.45300
H1236       H  0.40829384  0.41929785  0.58221445     0.36800
loop_ 
_geom_bond_atom_site_label_1 
_geom_bond_atom_site_label_2 
_geom_bond_distance 
_geom_bond_site_symmetry_2 
_ccdc_geom_bond_type 
C1            N2   1.366       .  A
C1          N624   1.361   1_554  A
C1         C1169   1.492       .  S
N2            C3   1.364       .  A
C3          N622   1.357       .  A
C3          C599   1.487       .  S
N4            C5   1.350       .  A
N4          C621   1.355       .  A
C5            N6   1.352       .  A
C5          C584   1.484       .  S
N6          C619   1.359       .  A
C7            N8   1.362       .  A
C7          N630   1.365   1_554  A
C7          C479   1.493       .  S
N8            C9   1.359       .  A
C9          N628   1.352       .  A
C9          C527   1.487       .  S
N10          C11   1.353       .  A
N10         C627   1.352       .  A
C11          N12   1.359       .  A
C11         C503   1.475       .  S
N12         C625   1.365       .  A
N13          C18   1.352       .  A
N13          C17   1.353       .  A
N13          H45   1.032       .  S
N14          C21   1.352       .  A
N14          C22   1.351       .  A
N15          C20   1.354       .  A
N15          C19   1.353       .  A
N15          H46   1.033       .  S
N16          C23   1.351       .  A
N16          C24   1.351       .  A
C17          C25   1.387       .  A
C17          C33   1.417       .  A
C18          C34   1.418       .  A
C18          C26   1.389       .  A
C19          C27   1.388       .  A
C19          C36   1.419       .  A
C20          C35   1.418       .  A
C20          C28   1.387       .  A
C21          C33   1.414       .  A
C21          C29   1.386       .  A
C22          C36   1.415       .  A
C22          C30   1.387       .  A
C23          C31   1.387       .  A
C23          C34   1.414       .  A
C24          C32   1.386       .  A
C24          C35   1.413       .  A
C25          C26   1.374       .  A
C25          H37   1.082       .  S
C26          H38   1.082       .  S
C27          C28   1.374       .  A
C27          H39   1.082       .  S
C28          H40   1.082       .  S
C29          C30   1.372       .  A
C29          H41   1.082       .  S
C30          H42   1.082       .  S
C31          C32   1.373       .  A
C31          H43   1.082       .  S
C32          H44   1.082       .  S
C33         C512   1.484       .  S
C34         C575   1.481       .  S
C35         C608   1.486       .  S
C36         C536   1.483       .  S
C47          N52   1.362       .  A
C47         N666   1.359   1_554  A
C47        C1025   1.492   1_554  S
N48          C49   1.356       .  A
N48         C665   1.357       .  A
C49         N668   1.357       .  A
C49         C431   1.487       .  S
N50          C51   1.357       .  A
N50         C667   1.356   1_554  A
C51          N52   1.360       .  A
C51         C464   1.480       .  S
C53          N54   1.363       .  A
C53         N676   1.364   1_554  A
C53         C335   1.495   1_545  S
N54          C55   1.358       .  A
C55          N56   1.354       .  A
C55         C383   1.486       .  S
N56         C675   1.354   1_554  A
C57          N58   1.359       .  A
C57         N674   1.355       .  A
C57         C359   1.473       .  S
N58         C671   1.363       .  A
N59          C64   1.354       .  A
N59          C63   1.352       .  A
N59          H91   1.036   1_565  S
N60          C67   1.350       .  A
N60          C68   1.350       .  A
N61          C66   1.351       .  A
N61          C65   1.353       .  A
N61          H92   1.036   1_565  S
N62          C69   1.350       .  A
N62          C70   1.349       .  A
C63          C71   1.387       .  A
C63          C79   1.416       .  A
C64          C80   1.415       .  A
C64          C72   1.386       .  A
C65          C73   1.387       .  A
C65          C82   1.413       .  A
C66          C81   1.414       .  A
C66          C74   1.388       .  A
C67          C79   1.412       .  A
C67          C75   1.387   1_565  A
C68          C82   1.410       .  A
C68          C76   1.386   1_565  A
C69          C77   1.385       .  A
C69          C80   1.408       .  A
C70          C78   1.387       .  A
C70          C81   1.409       .  A
C71          C72   1.375       .  A
C71          H83   1.082       .  S
C72          H84   1.082       .  S
C73          C74   1.375       .  A
C73          H85   1.082       .  S
C74          H86   1.082       .  S
C75          C76   1.372       .  A
C75          H87   1.082       .  S
C76          H88   1.082       .  S
C77          C78   1.371       .  A
C77          H89   1.082       .  S
C78          H90   1.082   1_565  S
C79         C392   1.482       .  S
C80         C455   1.483       .  S
C81         C440   1.478       .  S
C82         C368   1.481       .  S
C93          N98   1.360   1_556  A
C93         N712   1.367       .  A
C93         C263   1.490       .  S
N94          C95   1.360       .  A
N94         C711   1.364       .  A
C95         N714   1.356       .  A
C95         C311   1.485       .  S
N96          C97   1.354   1_556  A
N96         C713   1.357       .  A
C97          N98   1.355       .  A
C97         C287   1.483       .  S
C99         N104   1.368   1_556  A
C99         N718   1.363       .  A
C99         C818   1.498       .  S
N100        C101   1.359       .  A
N100        C717   1.362       .  A
C101        N720   1.356       .  A
C101        C224   1.491       .  S
N102        C103   1.356   1_556  A
N102        C719   1.355       .  A
C103        N104   1.365       .  A
C103        C248   1.489       .  S
N105        C110   1.352       .  A
N105        C109   1.354       .  A
N105        H137   1.030       .  S
N106        C113   1.354       .  A
N106        C114   1.352       .  A
N107        C112   1.356       .  A
N107        C111   1.353       .  A
N107        H138   1.035       .  S
N108        C115   1.350       .  A
N108        C116   1.351       .  A
C109        C117   1.388       .  A
C109        C125   1.420       .  A
C110        C126   1.419       .  A
C110        C118   1.388       .  A
C111        C119   1.388       .  A
C111        C128   1.419       .  A
C112        C127   1.419       .  A
C112        C120   1.387       .  A
C113        C125   1.418       .  A
C113        C121   1.385       .  A
C114        C128   1.419       .  A
C114        C122   1.388       .  A
C115        C123   1.388       .  A
C115        C126   1.416       .  A
C116        C124   1.385       .  A
C116        C127   1.412       .  A
C117        C118   1.375       .  A
C117        H129   1.082       .  S
C118        H130   1.082       .  S
C119        C120   1.374       .  A
C119        H131   1.082       .  S
C120        H132   1.082       .  S
C121        C122   1.373       .  A
C121        H133   1.082       .  S
C122        H134   1.082       .  S
C123        C124   1.373       .  A
C123        H135   1.082       .  S
C124        H136   1.082       .  S
C125        C239   1.492       .  S
C126        C296   1.481       .  S
C127        C320   1.487       .  S
C128        C215   1.491       .  S
O139       Mg141   2.161       .  S
O139       Mg765   2.164   1_554  S
O139        C174   1.234       .  S
C140        H179   1.081       .  S
C140        O153   1.235       .  S
C140        O177   1.270   1_545  A
Mg141       O788   2.163   1_554  S
Mg141       O181   2.272       .  S
Mg141       O152   2.290   1_545  S
Mg141       O803   2.285   1_554  S
O142       Mg167   2.139   1_565  S
O142       Mg802   2.156   1_554  S
O142        C163   1.236       .  S
O143        C174   1.269   1_655  A
O143       Mg167   2.302       .  S
C144        C191   1.490       .  S
C144        O146   1.274   1_655  A
C144        O158   1.275       .  A
O145        C173   1.268       .  A
O145       Mg147   2.293       .  S
O146       Mg178   2.276       .  S
Mg147       O153   2.160   1_455  S
Mg147       O757   2.160       .  S
Mg147       O161   2.272       .  S
Mg147       O767   2.313       .  S
C148        C488   1.487       .  S
C148        O186   1.272       .  A
C148        O154   1.274       .  A
O149        C156   1.277   1_455  A
O149       Mg765   2.316   1_554  S
H150        C163   1.081       .  S
C151        H176   1.081       .  S
C151        O165   1.236       .  S
C151        O166   1.270       .  A
O152        C175   1.267       .  A
O153       Mg785   2.161       .  S
O154       Mg802   2.293   1_554  S
C155        C416   1.493       .  S
C155        O168   1.272       .  A
C155        O160   1.276   1_565  A
C156        C272   1.490       .  S
C156        O183   1.270       .  A
Mg157       O164   2.140   1_655  S
Mg157       O783   2.160   1_554  S
Mg157       O159   2.301       .  S
Mg157       O186   2.264       .  S
Mg157       O776   2.318   1_554  S
O158       Mg775   2.311       .  S
O159        C163   1.270       .  A
O160       Mg785   2.317       .  S
O161        C180   1.274       .  A
O162        C182   1.277   1_556  A
O162       Mg796   2.316       .  S
O164       Mg796   2.153   1_554  S
O164        C175   1.233       .  S
O165       Mg184   2.153       .  S
O165       Mg775   2.154       .  S
O166       Mg178   2.302   1_655  S
Mg167       O771   2.162   1_554  S
Mg167       O183   2.247       .  S
Mg167       O778   2.317   1_554  S
O168       Mg184   2.268       .  S
H169        C174   1.081       .  S
O170       Mg178   2.140   1_545  S
O170       Mg759   2.160       .  S
O170        C173   1.234       .  S
H171        C173   1.081       .  S
H172        C175   1.081       .  S
O177       Mg184   2.304       .  S
Mg178       O782   2.150       .  S
Mg178       O780   2.301       .  S
C180        C560   1.489       .  S
C180        O185   1.274       .  A
O181        C182   1.274   1_545  A
C182        C344   1.493       .  S
Mg184       O760   2.155       .  S
Mg184       O772   2.310       .  S
O185       Mg759   2.295       .  S
C187        C188   1.403       .  A
C187        C192   1.403       .  A
C187        H197   1.083       .  S
C188        C193   1.488       .  S
C188        C807   1.408   1_655  A
C189        C190   1.405       .  A
C189        C806   1.409   1_455  A
C189        O194   1.372       .  S
C190        C809   1.410   1_455  A
C190        H195   1.083       .  S
C191        C192   1.414       .  A
C191        C808   1.408   1_655  A
C192        O196   1.371       .  S
C193        C202   1.402   1_655  A
C193        C816   1.408       .  A
O194        H210   0.992       .  S
O196        H207   0.992       .  S
C198        C199   1.405       .  A
C198        C811   1.409   1_554  A
C198        O203   1.372       .  S
C199        C818   1.407   1_554  A
C199        H204   1.083       .  S
C200        C717   1.494       .  S
C200        C201   1.416       .  A
C200        C817   1.407       .  A
C201        C202   1.403   1_655  A
C201        O205   1.371   1_655  S
C202        H206   1.084       .  S
O203        H208   0.992       .  S
O205        H209   0.992       .  S
C211        C212   1.404   1_455  A
C211        C216   1.400   1_455  A
C211        H221   1.084       .  S
C212        C217   1.483       .  S
C212        C213   1.409       .  A
C213        C214   1.398       .  A
C213        O218   1.371       .  S
C214        C215   1.403       .  A
C214        H219   1.084       .  S
C215        C216   1.410       .  A
C216        O220   1.372   1_655  S
C217        C222   1.406       .  A
C217        C226   1.403       .  A
O218        H234   0.992       .  S
O220        H231   0.992       .  S
C222        C223   1.399       .  A
C222        O227   1.372       .  S
C223        C224   1.409       .  A
C223        H228   1.083       .  S
C224        C225   1.414       .  A
C225        C226   1.402       .  A
C225        O229   1.371       .  S
C226        H230   1.084       .  S
O227        H232   0.992       .  S
O229        H233   0.992       .  S
C235        C236   1.405       .  A
C235        C240   1.401       .  A
C235        H245   1.083   1_655  S
C236        C241   1.490       .  S
C236        C237   1.412       .  A
C237        C238   1.405       .  A
C237        O242   1.371       .  S
C238        C239   1.404       .  A
C238        H243   1.083       .  S
C239        C240   1.406       .  A
C240        O244   1.371   1_655  S
C241        C246   1.411       .  A
C241        C250   1.402       .  A
O242        H258   0.992       .  S
O244        H255   0.992       .  S
C246        C247   1.408       .  A
C246        O251   1.372       .  S
C247        C248   1.405       .  A
C247        H252   1.083       .  S
C248        C249   1.414       .  A
C249        C250   1.400       .  A
C249        O253   1.372       .  S
C250        H254   1.084       .  S
O251        H256   0.992   1_655  S
O253        H257   0.992       .  S
C259        C260   1.398       .  A
C259        C264   1.400       .  A
C259        H269   1.084   1_655  S
C260        C265   1.478       .  S
C260        C879   1.406   1_554  A
C261        C262   1.401       .  A
C261        C878   1.405       .  A
C261        O266   1.372       .  S
C262        C881   1.408       .  A
C262        H267   1.083       .  S
C263        C264   1.417   1_556  A
C263        C880   1.407       .  A
C264        O268   1.371   1_655  S
C265        C274   1.399       .  A
C265        C888   1.405   1_655  A
O266        H282   0.992       .  S
O268        H279   0.992       .  S
C270        C271   1.403       .  A
C270        C883   1.405   1_455  A
C270        O275   1.371       .  S
C271        C890   1.410   1_455  A
C271        H276   1.083       .  S
C272        C273   1.417       .  A
C272        C889   1.409   1_655  A
C273        C274   1.399       .  A
C273        O277   1.372       .  S
C274        H278   1.084       .  S
O275        H280   0.992       .  S
O277        H281   0.992       .  S
C283        C284   1.401       .  A
C283        C288   1.400       .  A
C283        H293   1.084       .  S
C284        C289   1.476       .  S
C284        C285   1.406       .  A
C285        C286   1.397       .  A
C285        O290   1.372       .  S
C286        C287   1.407       .  A
C286        H291   1.083       .  S
C287        C288   1.413       .  A
C288        O292   1.371       .  S
C289        C294   1.409       .  A
C289        C298   1.402       .  A
O290        H306   0.992       .  S
O292        H303   0.992       .  S
C294        C295   1.401       .  A
C294        O299   1.372       .  S
C295        C296   1.402       .  A
C295        H300   1.083       .  S
C296        C297   1.405       .  A
C297        C298   1.397       .  A
C297        O301   1.371   1_655  S
C298        H302   1.084   1_655  S
O299        H304   0.992       .  S
O301        H305   0.992       .  S
C307        C308   1.406       .  A
C307        C312   1.407       .  A
C307        H317   1.083       .  S
C308        C313   1.485       .  S
C308        C309   1.407       .  A
C309        C310   1.394       .  A
C309        O314   1.372       .  S
C310        C311   1.405       .  A
C310        H315   1.084       .  S
C311        C312   1.413       .  A
C312        O316   1.371   1_655  S
C313        C318   1.410       .  A
C313        C322   1.405       .  A
O314        H330   0.992       .  S
O316        H327   0.992       .  S
C318        C319   1.403       .  A
C318        O323   1.372   1_655  S
C319        C320   1.403       .  A
C319        H324   1.083   1_655  S
C320        C321   1.406       .  A
C321        C322   1.399       .  A
C321        O325   1.371       .  S
C322        H326   1.084       .  S
O323        H328   0.992       .  S
O325        H329   0.992       .  S
C331        C336   1.400       .  A
C331        C950   1.404       .  A
C331        H341   1.084       .  S
C332        C337   1.489       .  S
C332        C333   1.407       .  A
C332        C949   1.404   1_554  A
C333        C334   1.403   1_565  A
C333        O338   1.373       .  S
C334        C335   1.409   1_545  A
C334        H339   1.083       .  S
C335        C954   1.415   1_554  A
C336        C953   1.413       .  A
C336        O340   1.371       .  S
C337        C346   1.404   1_554  A
C337        C960   1.409   1_565  A
O338        H354   0.992   1_565  S
O340        H351   0.992       .  S
C342        C343   1.400       .  A
C342        C955   1.408   1_545  A
C342        O347   1.371       .  S
C343        C962   1.408   1_545  A
C343        H348   1.083       .  S
C344        C345   1.416   1_554  A
C344        C961   1.408   1_565  A
C345        C346   1.403       .  A
C345        O349   1.372       .  S
C346        H350   1.084       .  S
O347        H352   0.992       .  S
O349        H353   0.992       .  S
C355        C356   1.401       .  A
C355        C360   1.394       .  A
C355        H365   1.084       .  S
C356        C361   1.479       .  S
C356        C357   1.410   1_565  A
C357        C358   1.405       .  A
C357        O362   1.373       .  S
C358        C359   1.404   1_545  A
C358        H363   1.084       .  S
C359        C360   1.408       .  A
C360        O364   1.372       .  S
C361        C366   1.409   1_565  A
C361        C370   1.404       .  A
O362        H378   0.992       .  S
O364        H375   0.992       .  S
C366        C367   1.400       .  A
C366        O371   1.371       .  S
C367        C368   1.402   1_545  A
C367        H372   1.084       .  S
C368        C369   1.405       .  A
C369        C370   1.398       .  A
C369        O373   1.371       .  S
C370        H374   1.084       .  S
O371        H376   0.992       .  S
O373        H377   0.992       .  S
C379        C380   1.401       .  A
C379        C384   1.403       .  A
C379        H389   1.084       .  S
C380        C385   1.473       .  S
C380        C381   1.403   1_545  A
C381        C382   1.396       .  A
C381        O386   1.372       .  S
C382        C383   1.409   1_565  A
C382        H387   1.083       .  S
C383        C384   1.414       .  A
C384        O388   1.371       .  S
C385        C390   1.406       .  A
C385        C394   1.402   1_545  A
O386        H402   0.992   1_565  S
O388        H399   0.992   1_545  S
C390        C391   1.396       .  A
C390        O395   1.371       .  S
C391        C392   1.402   1_545  A
C391        H396   1.084       .  S
C392        C393   1.407       .  A
C393        C394   1.400       .  A
C393        O397   1.372       .  S
C394        H398   1.084       .  S
O395        H400   0.992       .  S
O397        H401   0.992       .  S
C403        C408   1.402       .  A
C403       C1022   1.403   1_554  A
C403        H413   1.083       .  S
C404        C409   1.486       .  S
C404        C405   1.406       .  A
C404       C1021   1.404       .  A
C405        C406   1.399       .  A
C405        O410   1.372       .  S
C406        C407   1.410       .  A
C406        H411   1.083       .  S
C407        C665   1.491       .  S
C407       C1026   1.413       .  A
C408       C1025   1.414   1_554  A
C408        O412   1.371       .  S
C409        C418   1.403       .  A
C409       C1032   1.407   1_565  A
O410        H426   0.992       .  S
O412        H423   0.992       .  S
C414        C415   1.403   1_554  A
C414       C1027   1.407   1_544  A
C414        O419   1.372       .  S
C415       C1034   1.409   1_545  A
C415        H420   1.083   1_556  S
C416        C417   1.415       .  A
C416       C1033   1.410   1_565  A
C417        C418   1.401       .  A
C417        O421   1.371       .  S
C418        H422   1.084       .  S
O419        H424   0.992       .  S
O421        H425   0.992       .  S
C427        C428   1.399       .  A
C427        C432   1.398       .  A
C427        H437   1.084       .  S
C428        C433   1.470       .  S
C428        C429   1.401       .  A
C429        C430   1.398       .  A
C429        O434   1.372       .  S
C430        C431   1.410       .  A
C430        H435   1.083       .  S
C431        C432   1.415       .  A
C432        O436   1.371       .  S
C433        C438   1.407       .  A
C433        C442   1.401   1_565  A
O434        H450   0.992       .  S
O436        H447   0.992       .  S
C438        C439   1.396       .  A
C438        O443   1.372       .  S
C439        C440   1.402       .  A
C439        H444   1.084       .  S
C440        C441   1.406   1_565  A
C441        C442   1.396       .  A
C441        O445   1.372       .  S
C442        H446   1.084       .  S
O443        H448   0.992       .  S
O445        H449   0.992       .  S
C451        C452   1.403       .  A
C451        C456   1.400       .  A
C451        H461   1.084       .  S
C452        C457   1.477       .  S
C452        C453   1.408   1_565  A
C453        C454   1.400       .  A
C453        O458   1.372       .  S
C454        C455   1.401   1_545  A
C454        H459   1.084       .  S
C455        C456   1.407       .  A
C456        O460   1.371       .  S
C457        C462   1.407       .  A
C457        C466   1.401       .  A
O458        H474   0.992       .  S
O460        H471   0.992       .  S
C462        C463   1.403       .  A
C462        O467   1.372   1_565  S
C463        C464   1.406       .  A
C463        H468   1.083       .  S
C464        C465   1.411       .  A
C465        C466   1.398       .  A
C465        O469   1.372       .  S
C466        H470   1.084       .  S
O467        H472   0.992       .  S
O469        H473   0.992       .  S
C475        C476   1.400       .  A
C475        C480   1.402       .  A
C475        H485   1.084       .  S
C476        C481   1.481       .  S
C476       C1095   1.406   1_554  A
C477        C478   1.398       .  A
C477       C1094   1.405       .  A
C477        O482   1.372       .  S
C478       C1097   1.407       .  A
C478        H483   1.083       .  S
C479        C480   1.418       .  A
C479       C1096   1.408   1_554  A
C480        O484   1.371       .  S
C481        C490   1.402       .  A
C481       C1104   1.407       .  A
O482        H498   0.992       .  S
O484        H495   0.992       .  S
C486        C487   1.400       .  A
C486       C1099   1.405       .  A
C486        O491   1.371       .  S
C487       C1106   1.407       .  A
C487        H492   1.083       .  S
C488        C489   1.414       .  A
C488       C1105   1.409       .  A
C489        C490   1.401       .  A
C489        O493   1.371       .  S
C490        H494   1.084       .  S
O491        H496   0.992       .  S
O493        H497   0.992       .  S
C499        C500   1.407       .  A
C499        C504   1.405       .  A
C499        H509   1.083       .  S
C500        C505   1.483       .  S
C500        C501   1.407       .  A
C501        C502   1.394       .  A
C501        O506   1.372       .  S
C502        C503   1.403       .  A
C502        H507   1.084       .  S
C503        C504   1.408       .  A
C504        O508   1.371       .  S
C505        C510   1.409       .  A
C505        C514   1.405       .  A
O506        H522   0.992       .  S
O508        H519   0.992       .  S
C510        C511   1.400       .  A
C510        O515   1.372       .  S
C511        C512   1.401       .  A
C511        H516   1.084       .  S
C512        C513   1.406       .  A
C513        C514   1.399       .  A
C513        O517   1.371       .  S
C514        H518   1.084       .  S
O515        H520   0.992       .  S
O517        H521   0.992       .  S
C523        C524   1.399       .  A
C523        C528   1.396       .  A
C523        H533   1.084       .  S
C524        C529   1.476       .  S
C524        C525   1.405       .  A
C525        C526   1.400       .  A
C525        O530   1.371       .  S
C526        C527   1.408       .  A
C526        H531   1.083       .  S
C527        C528   1.417       .  A
C528        O532   1.372       .  S
C529        C534   1.408       .  A
C529        C538   1.403       .  A
O530        H546   0.992       .  S
O532        H543   0.992       .  S
C534        C535   1.398       .  A
C534        O539   1.372       .  S
C535        C536   1.401       .  A
C535        H540   1.084       .  S
C536        C537   1.407       .  A
C537        C538   1.399       .  A
C537        O541   1.371       .  S
C538        H542   1.084       .  S
O539        H544   0.992       .  S
O541        H545   0.992       .  S
C547        C552   1.405       .  A
C547       C1166   1.402   1_554  A
C547        H557   1.084       .  S
C548        C553   1.491       .  S
C548        C549   1.407       .  A
C548       C1165   1.408       .  A
C549        C550   1.396       .  A
C549        O554   1.372       .  S
C550        C551   1.409       .  A
C550        H555   1.083       .  S
C551        C619   1.491       .  S
C551       C1170   1.412       .  A
C552       C1169   1.415       .  A
C552        O556   1.371       .  S
C553        C558   1.409       .  A
C553       C1180   1.405       .  A
O554        H570   0.992       .  S
O556        H567   0.992       .  S
C558        C559   1.403       .  A
C558        O563   1.373       .  S
C559        C560   1.409       .  A
C559        H564   1.083       .  S
C560       C1179   1.411       .  A
C561        C562   1.402       .  A
C561       C1178   1.413       .  A
C561        O565   1.372       .  S
C562       C1171   1.401       .  A
C562        H566   1.084       .  S
O563        H568   0.992       .  S
O565        H569   0.992       .  S
C571        C572   1.403       .  A
C571        C576   1.396       .  A
C571        H581   1.084       .  S
C572        C577   1.475       .  S
C572        C573   1.408       .  A
C573        C574   1.399       .  A
C573        O578   1.372       .  S
C574        C575   1.402       .  A
C574        H579   1.083       .  S
C575        C576   1.405       .  A
C576        O580   1.372       .  S
C577        C582   1.404       .  A
C577        C586   1.401       .  A
O578        H594   0.992       .  S
O580        H591   0.992       .  S
C582        C583   1.395       .  A
C582        O587   1.372       .  S
C583        C584   1.408       .  A
C583        H588   1.083       .  S
C584        C585   1.414       .  A
C585        C586   1.400       .  A
C585        O589   1.371       .  S
C586        H590   1.084       .  S
O587        H592   0.992       .  S
O589        H593   0.992       .  S
C595        C596   1.404       .  A
C595        C600   1.407       .  A
C595        H605   1.083       .  S
C596        C601   1.479       .  S
C596        C597   1.403       .  A
C597        C598   1.396       .  A
C597        O602   1.372       .  S
C598        C599   1.408       .  A
C598        H603   1.083       .  S
C599        C600   1.412       .  A
C600        O604   1.371       .  S
C601        C606   1.408       .  A
C601        C610   1.403       .  A
O602        H618   0.992       .  S
O604        H615   0.992       .  S
C606        C607   1.402       .  A
C606        O611   1.371       .  S
C607        C608   1.403       .  A
C607        H612   1.083       .  S
C608        C609   1.406       .  A
C609        C610   1.400       .  A
C609        O613   1.371       .  S
C610        H614   1.084       .  S
O611        H616   0.992       .  S
O613        H617   0.992       .  S
C619        N620   1.367       .  A
N620        C621   1.366       .  A
C621       C1217   1.490       .  S
N622        C623   1.354   1_554  A
C623        N624   1.355       .  A
C623       C1202   1.489       .  S
C625        N626   1.360       .  A
C625       C1097   1.488       .  S
N626        C627   1.357       .  A
C627       C1145   1.485       .  S
N628        C629   1.352   1_554  A
C629        N630   1.359       .  A
C629       C1121   1.473       .  S
N631        C636   1.353       .  A
N631        C635   1.353       .  A
N631        H663   1.033       .  S
N632        C639   1.351       .  A
N632        C640   1.350       .  A
N633        C638   1.353       .  A
N633        C637   1.352       .  A
N633        H664   1.034       .  S
N634        C641   1.350       .  A
N634        C642   1.350       .  A
C635        C643   1.387       .  A
C635        C651   1.416       .  A
C636        C652   1.418       .  A
C636        C644   1.388       .  A
C637        C645   1.387       .  A
C637        C654   1.415       .  A
C638        C653   1.417       .  A
C638        C646   1.388       .  A
C639        C651   1.413       .  A
C639        C647   1.386       .  A
C640        C654   1.412       .  A
C640        C648   1.386       .  A
C641        C649   1.386       .  A
C641        C652   1.413       .  A
C642        C650   1.386       .  A
C642        C653   1.412       .  A
C643        C644   1.375       .  A
C643        H655   1.082       .  S
C644        H656   1.082       .  S
C645        C646   1.374       .  A
C645        H657   1.082       .  S
C646        H658   1.082       .  S
C647        C648   1.372       .  A
C647        H659   1.082       .  S
C648        H660   1.082       .  S
C649        C650   1.373       .  A
C649        H661   1.082       .  S
C650        H662   1.082       .  S
C651       C1130   1.483       .  S
C652       C1193   1.483       .  S
C653       C1226   1.484       .  S
C654       C1154   1.479       .  S
C665        N670   1.362       .  A
N666        C667   1.357       .  A
C667       C1049   1.487       .  S
N668        C669   1.358       .  A
C669        N670   1.361       .  A
C669       C1082   1.481       .  S
C671        N672   1.359       .  A
C671        C953   1.489       .  S
N672        C673   1.356       .  A
C673        N674   1.355       .  A
C673       C1001   1.487       .  S
C675        N676   1.360       .  A
C675        C977   1.484       .  S
N677        C682   1.355       .  A
N677        C681   1.352       .  A
N677        H709   1.034   1_565  S
N678        C685   1.351   1_565  A
N678        C686   1.352   1_565  A
N679        C684   1.351       .  A
N679        C683   1.353       .  A
N679        H710   1.035   1_565  S
N680        C687   1.350       .  A
N680        C688   1.349       .  A
C681        C689   1.389       .  A
C681        C697   1.420       .  A
C682        C698   1.418       .  A
C682        C690   1.386       .  A
C683        C691   1.387       .  A
C683        C700   1.416       .  A
C684        C699   1.417       .  A
C684        C692   1.388       .  A
C685        C697   1.416   1_545  A
C685        C693   1.387       .  A
C686        C700   1.413   1_545  A
C686        C694   1.385       .  A
C687        C695   1.385       .  A
C687        C698   1.410       .  A
C688        C696   1.387       .  A
C688        C699   1.412       .  A
C689        C690   1.376       .  A
C689        H701   1.082       .  S
C690        H702   1.082       .  S
C691        C692   1.375       .  A
C691        H703   1.082       .  S
C692        H704   1.082       .  S
C693        C694   1.373       .  A
C693        H705   1.082       .  S
C694        H706   1.082       .  S
C695        C696   1.369       .  A
C695        H707   1.082       .  S
C696        H708   1.082       .  S
C697       C1010   1.484   1_565  S
C698       C1073   1.485       .  S
C699       C1058   1.481       .  S
C700        C986   1.485   1_565  S
C711        N716   1.362       .  A
C711        C881   1.491       .  S
N712        C713   1.363       .  A
C713        C929   1.486       .  S
N714        C715   1.355       .  A
C715        N716   1.359       .  A
C715        C905   1.491       .  S
C717        N722   1.367       .  A
N718        C719   1.360       .  A
C719        C842   1.492       .  S
N720        C721   1.356       .  A
C721        N722   1.364       .  A
C721        C866   1.489       .  S
N723        C728   1.353       .  A
N723        C727   1.355       .  A
N723        H755   1.035       .  S
N724        C731   1.354       .  A
N724        C732   1.353       .  A
N725        C730   1.355       .  A
N725        C729   1.354       .  A
N725        H756   1.035       .  S
N726        C733   1.352       .  A
N726        C734   1.353       .  A
C727        C735   1.387       .  A
C727        C743   1.418       .  A
C728        C744   1.417       .  A
C728        C736   1.387       .  A
C729        C737   1.387       .  A
C729        C746   1.419       .  A
C730        C745   1.419       .  A
C730        C738   1.387       .  A
C731        C743   1.416       .  A
C731        C739   1.385       .  A
C732        C746   1.418       .  A
C732        C740   1.387       .  A
C733        C741   1.387       .  A
C733        C744   1.416       .  A
C734        C742   1.386       .  A
C734        C745   1.415       .  A
C735        C736   1.376       .  A
C735        H747   1.082       .  S
C736        H748   1.082       .  S
C737        C738   1.376       .  A
C737        H749   1.082       .  S
C738        H750   1.082       .  S
C739        C740   1.375       .  A
C739        H751   1.082       .  S
C740        H752   1.082       .  S
C741        C742   1.375       .  A
C741        H753   1.082       .  S
C742        H754   1.082       .  S
C743        C857   1.492       .  S
C744        C914   1.487       .  S
C745        C938   1.490       .  S
C746        C833   1.491       .  S
O757       Mg759   2.152       .  S
O757        C792   1.234       .  S
C758        H797   1.081       .  S
C758        O771   1.235       .  S
C758        O795   1.270   1_545  A
Mg759       O799   2.260       .  S
Mg759       O770   2.289   1_545  S
O760       Mg785   2.148   1_565  S
O760        C781   1.236       .  S
O761        C792   1.269   1_655  A
O761       Mg785   2.300       .  S
C762        C809   1.495       .  S
C762        O764   1.274   1_655  A
C762        O776   1.277       .  A
O763        C791   1.269       .  A
O763       Mg765   2.298       .  S
O764       Mg796   2.273       .  S
Mg765       O771   2.158   1_455  S
Mg765       O779   2.274       .  S
C766       C1106   1.482       .  S
C766        O804   1.269       .  A
C766        O772   1.275       .  A
O767        C774   1.277   1_455  A
H768        C781   1.081       .  S
C769        H794   1.081       .  S
C769        O783   1.236       .  S
C769        O784   1.270       .  A
O770        C793   1.268       .  A
C773       C1034   1.492       .  S
C773        O786   1.271       .  A
C773        O778   1.276   1_565  A
C774        C890   1.491       .  S
C774        O801   1.271       .  A
Mg775       O782   2.129   1_655  S
Mg775       O777   2.304       .  S
Mg775       O804   2.237       .  S
O777        C781   1.271       .  A
O779        C798   1.273       .  A
O780        C800   1.275       .  A
O782        C793   1.234       .  S
O783       Mg802   2.156       .  S
O784       Mg796   2.302   1_655  S
Mg785       O801   2.256       .  S
O786       Mg802   2.266       .  S
H787        C792   1.081       .  S
O788       Mg796   2.144   1_545  S
O788        C791   1.235       .  S
H789        C791   1.081       .  S
H790        C793   1.081       .  S
O795       Mg802   2.301       .  S
C798       C1178   1.488       .  S
C798        O803   1.273       .  A
O799        C800   1.273   1_545  A
C800        C962   1.488       .  S
C805        C806   1.404       .  A
C805        C810   1.403       .  A
C805        H815   1.083       .  S
C806        C811   1.492       .  S
C807        C808   1.403       .  A
C807        O812   1.372       .  S
C808        H813   1.083       .  S
C809        C810   1.415       .  A
C810        O814   1.371       .  S
C811        C820   1.403   1_655  A
O812        H828   0.992       .  S
O814        H825   0.992       .  S
C816        C817   1.405       .  A
C816        O821   1.372       .  S
C817        H822   1.083       .  S
C818        C819   1.417   1_655  A
C819        C820   1.405       .  A
C819        O823   1.371       .  S
C820        H824   1.084       .  S
O821        H826   0.992       .  S
O823        H827   0.992       .  S
C829        C830   1.404       .  A
C829        C834   1.401       .  A
C829        H839   1.084   1_655  S
C830        C835   1.485       .  S
C830        C831   1.410       .  A
C831        C832   1.401       .  A
C831        O836   1.371       .  S
C832        C833   1.403       .  A
C832        H837   1.083       .  S
C833        C834   1.409       .  A
C834        O838   1.372   1_655  S
C835        C840   1.406       .  A
C835        C844   1.403       .  A
O836        H852   0.992       .  S
O838        H849   0.992       .  S
C840        C841   1.399       .  A
C840        O845   1.372       .  S
C841        C842   1.410       .  A
C841        H846   1.083       .  S
C842        C843   1.414       .  A
C843        C844   1.403       .  A
C843        O847   1.371       .  S
C844        H848   1.084       .  S
O845        H850   0.992       .  S
O847        H851   0.992       .  S
C853        C854   1.403       .  A
C853        C858   1.401       .  A
C853        H863   1.084   1_655  S
C854        C859   1.485       .  S
C854        C855   1.410       .  A
C855        C856   1.406       .  A
C855        O860   1.371       .  S
C856        C857   1.405       .  A
C856        H861   1.083       .  S
C857        C858   1.407       .  A
C858        O862   1.371   1_655  S
C859        C864   1.408       .  A
C859        C868   1.401       .  A
O860        H876   0.992       .  S
O862        H873   0.992       .  S
C864        C865   1.406       .  A
C864        O869   1.371       .  S
C865        C866   1.406       .  A
C865        H870   1.083       .  S
C866        C867   1.415       .  A
C867        C868   1.401       .  A
C867        O871   1.372       .  S
C868        H872   1.084       .  S
O869        H874   0.992   1_655  S
O871        H875   0.992       .  S
C877        C878   1.399       .  A
C877        C882   1.401       .  A
C877        H887   1.084   1_655  S
C878        C883   1.478       .  S
C879        C880   1.402       .  A
C879        O884   1.371       .  S
C880        H885   1.083       .  S
C881        C882   1.416       .  A
C882        O886   1.371       .  S
C883        C892   1.399       .  A
O884        H900   0.992       .  S
O886        H897   0.992   1_655  S
C888        C889   1.401       .  A
C888        O893   1.371       .  S
C889        H894   1.083       .  S
C890        C891   1.416       .  A
C891        C892   1.399       .  A
C891        O895   1.372       .  S
C892        H896   1.084       .  S
O893        H898   0.992       .  S
O895        H899   0.992       .  S
C901        C902   1.403       .  A
C901        C906   1.403       .  A
C901        H911   1.083       .  S
C902        C907   1.485       .  S
C902        C903   1.407       .  A
C903        C904   1.398       .  A
C903        O908   1.372       .  S
C904        C905   1.409       .  A
C904        H909   1.083       .  S
C905        C906   1.414       .  A
C906        O910   1.371       .  S
C907        C912   1.410       .  A
C907        C916   1.404       .  A
O908        H924   0.992       .  S
O910        H921   0.992       .  S
C912        C913   1.403       .  A
C912        O917   1.372       .  S
C913        C914   1.403       .  A
C913        H918   1.083       .  S
C914        C915   1.406       .  A
C915        C916   1.399       .  A
C915        O919   1.371   1_655  S
C916        H920   1.084   1_655  S
O917        H922   0.992       .  S
O919        H923   0.992       .  S
C925        C926   1.407       .  A
C925        C930   1.408       .  A
C925        H935   1.083       .  S
C926        C931   1.486       .  S
C926        C927   1.406       .  A
C927        C928   1.396       .  A
C927        O932   1.372       .  S
C928        C929   1.406       .  A
C928        H933   1.084       .  S
C929        C930   1.412       .  A
C930        O934   1.371   1_655  S
C931        C936   1.409       .  A
C931        C940   1.405       .  A
O932        H948   0.992       .  S
O934        H945   0.992       .  S
C936        C937   1.403       .  A
C936        O941   1.372   1_655  S
C937        C938   1.403       .  A
C937        H942   1.083   1_655  S
C938        C939   1.407       .  A
C939        C940   1.402       .  A
C939        O943   1.371       .  S
C940        H944   1.084       .  S
O941        H946   0.992       .  S
O943        H947   0.992       .  S
C949        C954   1.402       .  A
C949        H959   1.084       .  S
C950        C955   1.484       .  S
C950        C951   1.406   1_565  A
C951        C952   1.400       .  A
C951        O956   1.373       .  S
C952        C953   1.410   1_545  A
C952        H957   1.083       .  S
C954        O958   1.371       .  S
C955        C964   1.402       .  A
O956        H972   0.992       .  S
O958        H969   0.992       .  S
C960        C961   1.402       .  A
C960        O965   1.371       .  S
C961        H966   1.083       .  S
C962        C963   1.415       .  A
C963        C964   1.398       .  A
C963        O967   1.372       .  S
C964        H968   1.084       .  S
O965        H970   0.992       .  S
O967        H971   0.992       .  S
C973        C974   1.402       .  A
C973        C978   1.396       .  A
C973        H983   1.083       .  S
C974        C979   1.488       .  S
C974        C975   1.411   1_545  A
C975        C976   1.404       .  A
C975        O980   1.371       .  S
C976        C977   1.406   1_565  A
C976        H981   1.083       .  S
C977        C978   1.413       .  A
C978        O982   1.372       .  S
C979        C984   1.412       .  A
C979        C988   1.406   1_545  A
O980        H996   0.992       .  S
O982        H993   0.992       .  S
C984        C985   1.401       .  A
C984        O989   1.373       .  S
C985        C986   1.400       .  A
C985        H990   1.084       .  S
C986        C987   1.406   1_545  A
C987        C988   1.401       .  A
C987        O991   1.371       .  S
C988        H992   1.083       .  S
O989        H994   0.992       .  S
O991        H995   0.992       .  S
C997        C998   1.401   1_565  A
C997       C1002   1.399       .  A
C997       H1007   1.084       .  S
C998       C1003   1.478       .  S
C998        C999   1.406       .  A
C999       C1000   1.398   1_545  A
C999       O1004   1.373       .  S
C1000      C1001   1.408       .  A
C1000      H1005   1.083       .  S
C1001      C1002   1.415       .  A
C1002      O1006   1.371       .  S
C1003      C1008   1.409       .  A
C1003      C1012   1.403   1_545  A
O1004      H1020   0.992       .  S
O1006      H1017   0.992       .  S
C1008      C1009   1.398       .  A
C1008      O1013   1.371       .  S
C1009      C1010   1.402       .  A
C1009      H1014   1.084       .  S
C1010      C1011   1.407   1_545  A
C1011      C1012   1.399       .  A
C1011      O1015   1.372       .  S
C1012      H1016   1.084       .  S
O1013      H1018   0.992       .  S
O1015      H1019   0.992       .  S
C1021      C1026   1.403       .  A
C1021      H1031   1.083       .  S
C1022      C1027   1.484       .  S
C1022      C1023   1.406       .  A
C1023      C1024   1.400       .  A
C1023      O1028   1.372       .  S
C1024      C1025   1.411       .  A
C1024      H1029   1.083       .  S
C1026      O1030   1.371       .  S
C1027      C1036   1.402       .  A
O1028      H1044   0.992   1_565  S
O1030      H1041   0.992       .  S
C1032      C1033   1.403       .  A
C1032      O1037   1.372       .  S
C1033      H1038   1.083       .  S
C1034      C1035   1.415       .  A
C1035      C1036   1.401       .  A
C1035      O1039   1.371       .  S
C1036      H1040   1.084       .  S
O1037      H1042   0.992       .  S
O1039      H1043   0.992       .  S
C1045      C1046   1.400       .  A
C1045      C1050   1.396       .  A
C1045      H1055   1.084       .  S
C1046      C1051   1.474       .  S
C1046      C1047   1.404       .  A
C1047      C1048   1.400       .  A
C1047      O1052   1.373       .  S
C1048      C1049   1.410       .  A
C1048      H1053   1.083       .  S
C1049      C1050   1.415       .  A
C1050      O1054   1.371       .  S
C1051      C1056   1.408       .  A
C1051      C1060   1.403   1_565  A
O1052      H1068   0.992       .  S
O1054      H1065   0.992   1_565  S
C1056      C1057   1.397       .  A
C1056      O1061   1.371       .  S
C1057      C1058   1.403       .  A
C1057      H1062   1.084       .  S
C1058      C1059   1.405   1_565  A
C1059      C1060   1.396       .  A
C1059      O1063   1.372       .  S
C1060      H1064   1.084       .  S
O1061      H1066   0.991       .  S
O1063      H1067   0.992       .  S
C1069      C1070   1.405       .  A
C1069      C1074   1.400       .  A
C1069      H1079   1.084       .  S
C1070      C1075   1.483       .  S
C1070      C1071   1.410   1_565  A
C1071      C1072   1.402       .  A
C1071      O1076   1.372       .  S
C1072      C1073   1.401   1_545  A
C1072      H1077   1.084       .  S
C1073      C1074   1.406       .  A
C1074      O1078   1.371       .  S
C1075      C1080   1.409       .  A
C1075      C1084   1.402       .  A
O1076      H1092   0.992       .  S
O1078      H1089   0.992       .  S
C1080      C1081   1.405       .  A
C1080      O1085   1.373   1_565  S
C1081      C1082   1.405       .  A
C1081      H1086   1.083       .  S
C1082      C1083   1.410       .  A
C1083      C1084   1.398       .  A
C1083      O1087   1.372       .  S
C1084      H1088   1.084       .  S
O1085      H1090   0.992       .  S
O1087      H1091   0.992       .  S
C1093      C1094   1.398       .  A
C1093      C1098   1.399       .  A
C1093      H1103   1.084       .  S
C1094      C1099   1.474       .  S
C1095      C1096   1.400       .  A
C1095      O1100   1.372       .  S
C1096      H1101   1.083       .  S
C1097      C1098   1.418       .  A
C1098      O1102   1.371       .  S
C1099      C1108   1.399       .  A
O1100      H1116   0.992       .  S
O1102      H1113   0.992       .  S
C1104      C1105   1.399       .  A
C1104      O1109   1.372   1_554  S
C1105      H1110   1.083   1_554  S
C1106      C1107   1.415       .  A
C1107      C1108   1.397       .  A
C1107      O1111   1.372       .  S
C1108      H1112   1.084       .  S
O1109      H1114   0.992   1_556  S
O1111      H1115   0.992       .  S
C1117      C1118   1.406       .  A
C1117      C1122   1.404       .  A
C1117      H1127   1.083       .  S
C1118      C1123   1.482       .  S
C1118      C1119   1.407       .  A
C1119      C1120   1.395       .  A
C1119      O1124   1.372       .  S
C1120      C1121   1.402       .  A
C1120      H1125   1.084       .  S
C1121      C1122   1.408       .  A
C1122      O1126   1.371       .  S
C1123      C1128   1.409       .  A
C1123      C1132   1.405       .  A
O1124      H1140   0.992       .  S
O1126      H1137   0.992       .  S
C1128      C1129   1.399       .  A
C1128      O1133   1.372       .  S
C1129      C1130   1.402       .  A
C1129      H1134   1.084       .  S
C1130      C1131   1.406       .  A
C1131      C1132   1.400       .  A
C1131      O1135   1.371       .  S
C1132      H1136   1.084       .  S
O1133      H1138   0.992       .  S
O1135      H1139   0.992       .  S
C1141      C1142   1.398       .  A
C1141      C1146   1.396       .  A
C1141      H1151   1.084       .  S
C1142      C1147   1.471       .  S
C1142      C1143   1.403       .  A
C1143      C1144   1.399       .  A
C1143      O1148   1.371       .  S
C1144      C1145   1.408       .  A
C1144      H1149   1.083       .  S
C1145      C1146   1.417       .  A
C1146      O1150   1.372       .  S
C1147      C1152   1.406       .  A
C1147      C1156   1.402       .  A
O1148      H1164   0.992       .  S
O1150      H1161   0.992       .  S
C1152      C1153   1.397       .  A
C1152      O1157   1.372       .  S
C1153      C1154   1.401       .  A
C1153      H1158   1.084       .  S
C1154      C1155   1.406       .  A
C1155      C1156   1.398       .  A
C1155      O1159   1.371       .  S
C1156      H1160   1.084       .  S
O1157      H1162   0.992       .  S
O1159      H1163   0.992       .  S
C1165      C1170   1.405       .  A
C1165      H1175   1.083       .  S
C1166      C1171   1.476       .  S
C1166      C1167   1.401       .  A
C1167      C1168   1.396       .  A
C1167      O1172   1.372       .  S
C1168      C1169   1.411   1_556  A
C1168      H1173   1.082       .  S
C1170      O1174   1.371       .  S
C1171      C1176   1.403   1_556  A
O1172      H1188   0.992       .  S
O1174      H1185   0.992       .  S
C1176      C1177   1.399   1_554  A
C1176      O1181   1.372       .  S
C1177      C1178   1.411       .  A
C1177      H1182   1.083   1_556  S
C1179      C1180   1.400       .  A
C1179      O1183   1.372       .  S
C1180      H1184   1.083       .  S
O1181      H1186   0.992       .  S
O1183      H1187   0.992       .  S
C1189      C1190   1.404       .  A
C1189      C1194   1.397       .  A
C1189      H1199   1.083       .  S
C1190      C1195   1.480       .  S
C1190      C1191   1.409       .  A
C1191      C1192   1.401       .  A
C1191      O1196   1.372       .  S
C1192      C1193   1.403       .  A
C1192      H1197   1.084       .  S
C1193      C1194   1.405       .  A
C1194      O1198   1.372       .  S
C1195      C1200   1.405       .  A
C1195      C1204   1.402       .  A
O1196      H1212   0.992       .  S
O1198      H1209   0.992       .  S
C1200      C1201   1.397       .  A
C1200      O1205   1.372       .  S
C1201      C1202   1.408       .  A
C1201      H1206   1.083       .  S
C1202      C1203   1.416       .  A
C1203      C1204   1.402       .  A
C1203      O1207   1.371       .  S
C1204      H1208   1.084       .  S
O1205      H1210   0.992       .  S
O1207      H1211   0.992       .  S
C1213      C1214   1.403       .  A
C1213      C1218   1.406       .  A
C1213      H1223   1.083       .  S
C1214      C1219   1.474       .  S
C1214      C1215   1.401       .  A
C1215      C1216   1.393       .  A
C1215      O1220   1.373       .  S
C1216      C1217   1.411       .  A
C1216      H1221   1.083       .  S
C1217      C1218   1.413       .  A
C1218      O1222   1.370       .  S
C1219      C1224   1.407       .  A
C1219      C1228   1.401       .  A
O1220      H1236   0.992       .  S
O1222      H1233   0.992       .  S
C1224      C1225   1.398       .  A
C1224      O1229   1.372       .  S
C1225      C1226   1.402       .  A
C1225      H1230   1.084       .  S
C1226      C1227   1.407       .  A
C1227      C1228   1.400       .  A
C1227      O1231   1.371       .  S
C1228      H1232   1.084       .  S
O1229      H1234   0.991       .  S
O1231      H1235   0.991       .  S
