geometry optimzed in LAMMPS
_audit_creation_date              2020-11-30 
_audit_creation_method            'lammps2cif' 
_symmetry_space_group_name_H-M    'P1' 
_symmetry_Int_Tables_number       1 
_symmetry_cell_setting            triclinic 
loop_ 
_symmetry_equiv_pos_as_xyz 
  x,y,z 
_cell_length_a                    30.99804182 
_cell_length_b                    30.87647017412891 
_cell_length_c                    33.693483749829475 
_cell_angle_alpha                 91.4108538006092 
_cell_angle_beta                  91.4515300826033 
_cell_angle_gamma                 118.73758601364838 
loop_ 
_atom_site_label 
_atom_site_type_symbol 
_atom_site_fract_x 
_atom_site_fract_y 
_atom_site_fract_z 
_atom_site_charge 
O1          O  0.43634706  0.23495775  0.53296249    -0.81100
C2          C  0.27252268  0.06111249  0.45500234     0.98200
O3          O  0.31920741  0.08012085  0.45610158    -0.70200
O4          O  0.41740579  0.15772012  0.46044581    -0.73800
Al5        Al  0.36461676  0.12211523  0.49826947     1.49000
C6          C  0.43896050  0.20066931  0.44623663     0.93500
O7          O  0.33908563  0.24399220  0.46001240    -0.80000
O8          O  0.27960446  0.19901498  0.54010241    -0.73600
Al9        Al  0.38340464  0.23269653  0.49642658     1.90100
O10         O  0.26644109  0.17759798  0.46085058    -0.72700
O11         O  0.27017776  0.10487469  0.55230141    -0.72500
O12         O  0.25304447  0.08326702  0.47342157    -0.78200
O13         O  0.31854174  0.07438842  0.53667236    -0.76400
O14         O  0.34104659  0.16631574  0.50010747    -1.12500
O15         O  0.41340742  0.15619672  0.53932437    -0.71700
C16         C  0.44436245  0.20145932  0.54725965     0.99000
C17         C  0.29332922  0.22126237  0.44941144     0.95400
Al18       Al  0.27484795  0.14363544  0.50607546     1.55600
O19         O  0.42072262  0.22901347  0.45249892    -0.76300
C20         C  0.28219884  0.07090096  0.55599164     0.99600
C21         C  0.31457718  0.24183947  0.54946449     0.94400
O22         O  0.35748377  0.25320492  0.53872967    -0.81700
N23         N  0.15673721  0.13159879  0.94867280    -0.35900
N24         N  0.09758537  0.15484833  0.99835955    -0.56500
N25         N  0.11039407  0.09056642  0.08642261    -0.35900
N26         N  0.18225652  0.07992135  0.00600317    -0.56500
C27         C  0.12761219  0.14084464  0.92350731     0.27700
C28         C  0.17438493  0.10663471  0.92701287     0.27700
C29         C  0.07857677  0.09938954  0.06480566     0.27700
C30         C  0.11820826  0.05805632  0.06472240     0.27700
C31         C  0.10214336  0.18549825  0.96988708     0.36300
C32         C  0.08468123  0.17011310  0.03116090     0.36300
C33         C  0.21617279  0.08572050  0.97990272     0.36300
C34         C  0.19176292  0.06281319  0.03966824     0.36300
C35         C  0.12451959  0.11894934  0.88636056    -0.21200
C36         C  0.15545093  0.09905281  0.88839543    -0.21200
C37         C  0.06003254  0.06600200  0.03225789    -0.21200
C38         C  0.08691107  0.04147874  0.03124524    -0.21200
C39         C  0.09226783  0.22217832  0.98434222    -0.22300
C40         C  0.08196895  0.21279825  0.02411144    -0.22300
C41         C  0.24981353  0.07368896  0.99689737    -0.22300
C42         C  0.23464817  0.05953657  0.03503167    -0.22300
C43         C  0.11178427  0.17613647  0.93132085    -0.17600
C44         C  0.21123376  0.09517236  0.94003248    -0.17800
C45         C  0.15944800  0.05136413  0.07192480    -0.17600
C46         C  0.07959618  0.14555220  0.06657565    -0.17600
H47         H  0.10536306  0.12084178  0.85971141     0.15300
H48         H  0.16534277  0.08316279  0.86385902     0.15300
H49         H  0.03481809  0.06453234  0.00874907     0.15300
H50         H  0.08611675  0.01699406  0.00731763     0.15300
H51         H  0.09256288  0.25217260  0.96822164     0.13600
H52         H  0.07243481  0.23389424  0.04475499     0.13600
H53         H  0.28044523  0.07287162  0.98282478     0.13600
H54         H  0.25222930  0.04558264  0.05476785     0.13600
H55         H  0.16996990  0.14788328  0.97698957     0.26800
H56         H  0.13197671  0.11081965  0.11125403     0.26800
N57         N  0.31207009  0.47072705  0.93709551    -0.35900
N58         N  0.37376437  0.04899087  0.99028291    -0.56500
N59         N  0.31679841  0.48390500  0.04885529    -0.35900
N60         N  0.25217452  0.40063918  0.99714016    -0.56500
C61         C  0.33709247  0.00680973  0.91208060     0.27700
C62         C  0.27026634  0.43716242  0.91724987     0.27700
C63         C  0.33486469  0.02780514  0.06839524     0.27700
C64         C  0.28085585  0.45090805  0.07089577     0.27700
C65         C  0.40280769  0.06477644  0.95893847     0.36300
C66         C  0.39996177  0.07639904  0.02267133     0.36300
C67         C  0.24431471  0.37051644  0.96494442     0.36300
C68         C  0.25415836  0.37675904  0.02983733     0.36300
C69         C  0.31057631  0.99721985  0.87633897    -0.21200
C70         C  0.26836495  0.45442973  0.87986793    -0.21200
C71         C  0.30884159  0.02255248  0.10234625    -0.21200
C72         C  0.27523840  0.47436082  0.10416090    -0.21200
C73         C  0.44819925  0.10382661  0.97129486    -0.22300
C74         C  0.44631755  0.11141864  0.01191592    -0.22300
C75         C  0.23854703  0.32548133  0.97727942    -0.22300
C76         C  0.24511027  0.32959447  0.01860758    -0.22300
C77         C  0.38555585  0.04608886  0.91955592    -0.17600
C78         C  0.24650272  0.38621709  0.92526180    -0.17600
C79         C  0.26618391  0.40036987  0.06837889    -0.17600
C80         C  0.38019972  0.06955409  0.06079903    -0.17600
H81         H  0.32127866  0.01791650  0.84968457     0.15300
H82         H  0.24118612  0.43570113  0.85598120     0.15300
H83         H  0.31594110  0.04992323  0.12527591     0.15300
H84         H  0.25291155  0.45712587  0.12913168     0.15300
H85         H  0.47907225  0.12453442  0.95311121     0.13600
H86         H  0.47541792  0.13915778  0.03115806     0.13600
H87         H  0.23259582  0.29400083  0.95849052     0.13600
H88         H  0.24485204  0.30191981  0.03781347     0.13600
H89         H  0.32711426  0.46403060  0.96264342     0.26800
H90         H  0.33480115  0.47439706  0.02745790     0.26800
N91         N  0.46582491  0.34162340  0.07892082    -0.35900
N92         N  0.05734129  0.39924553  0.99956726    -0.56500
N93         N  0.48042605  0.38107311  0.94816956    -0.35900
N94         N  0.38990283  0.33414505  0.99602432    -0.56500
C95         C  0.00954246  0.37984816  0.06996975     0.27700
C96         C  0.43145784  0.35461391  0.06889777     0.27700
C97         C  0.01956344  0.41085558  0.92665901     0.27700
C98         C  0.43952632  0.37509110  0.92846250     0.27700
C99         C  0.07385526  0.38289742  0.02973145     0.36300
C100        C  0.07962371  0.39824118  0.96630574     0.36300
C101        C  0.36193524  0.30766984  0.02545015     0.36300
C102        C  0.37147225  0.30963172  0.96135344     0.36300
C103        C  0.00232609  0.41702937  0.05441670    -0.21200
C104        C  0.45293937  0.40151851  0.05414287    -0.21200
C105        C  0.00272520  0.42862100  0.89556645    -0.21200
C106        C  0.45265668  0.40641281  0.89708666    -0.21200
C107        C  0.10844724  0.37066058  0.01564551    -0.22300
C108        C  0.11341070  0.38205544  0.97557685    -0.22300
C109        C  0.32132898  0.26585912  0.00859688    -0.22300
C110        C  0.32818050  0.26664116  0.96757998    -0.22300
C111        C  0.05337362  0.37703822  0.06784803    -0.17600
C112        C  0.38114821  0.32068826  0.06531586    -0.17600
C113        C  0.39672488  0.32858379  0.92642604    -0.17600
C114        C  0.06582343  0.41099481  0.92952184    -0.17600
H115        H  0.02973782  0.45079266  0.04281953     0.15300
H116        H  0.43446816  0.42071962  0.04203205     0.15300
H117        H  0.02195175  0.45043559  0.87107346     0.15300
H118        H  0.42834432  0.40633109  0.87339664     0.15300
H119        H  0.12761080  0.35491923  0.03212645     0.13600
H120        H  0.13800467  0.37728230  0.95607329     0.13600
H121        H  0.29147994  0.23654184  0.02332856     0.13600
H122        H  0.30445481  0.23889616  0.94539438     0.13600
H123        H  0.45882810  0.30607227  0.08579611     0.26800
H124        H  0.47937552  0.35553478  0.96837550     0.26800
C125        C  0.03170533  0.23945417  0.41601306     0.03000
C126        C  0.47695784  0.21247364  0.41422442     0.02900
C127        C  0.45313867  0.19256845  0.37672646    -0.17600
C128        C  0.47868332  0.19550401  0.34238293     0.03000
C129        C  0.03040060  0.21876092  0.34398572     0.02900
C130        C  0.05576960  0.24006966  0.38047823    -0.17600
H131        H  0.09547142  0.25721509  0.38147167     0.05000
H132        H  0.41325018  0.17401219  0.37403393     0.05000
C133        C  0.27455380  0.24204508  0.41663038     0.03000
C134        C  0.25816618  0.27956566  0.41908777     0.02900
C135        C  0.26177782  0.30667476  0.38504025    -0.17600
C136        C  0.27422776  0.29503756  0.34837969     0.03000
C137        C  0.28085808  0.25305772  0.34458804     0.02900
C138        C  0.28279061  0.22848128  0.37841749    -0.17600
H139        H  0.29292244  0.19951731  0.37497964     0.05000
H140        H  0.25358918  0.33711671  0.38672919     0.05000
C141        C  0.03637556  0.24736224  0.58526049     0.03000
C142        C  0.48314332  0.21164900  0.58023121     0.02900
C143        C  0.46086902  0.17876064  0.61116268    -0.17600
C144        C  0.48508532  0.18160558  0.64688538     0.03000
C145        C  0.03247166  0.22174181  0.65482619     0.02900
C146        C  0.05804745  0.25281717  0.62402862    -0.17600
H147        H  0.09612197  0.28062972  0.63007941     0.05000
H148        H  0.42226824  0.15094402  0.60865647     0.05000
C149        C  0.27917676  0.30013148  0.58247266     0.03000
C150        C  0.31059106  0.27646194  0.58015496     0.02900
C151        C  0.34713620  0.28880328  0.61073195    -0.17600
C152        C  0.35153098  0.31790709  0.64432344     0.03000
C153        C  0.31939269  0.33772369  0.64776709     0.02900
C154        C  0.28616015  0.33081537  0.61637549    -0.17600
H155        H  0.26192579  0.34678251  0.62028808     0.05000
H156        H  0.37070045  0.27172453  0.61047091     0.05000
C157        C  0.25824615  0.03287043  0.58855996     0.03000
C158        C  0.22133817  0.47942489  0.58538587     0.02900
C159        C  0.19262867  0.45871716  0.61902496    -0.17600
C160        C  0.20067970  0.48477264  0.65538350     0.03000
C161        C  0.24055492  0.03291094  0.66018014     0.02900
C162        C  0.26757786  0.05651681  0.62700576    -0.17600
H163        H  0.29610067  0.09475287  0.63121322     0.05000
H164        H  0.16424130  0.42024055  0.61774581     0.05000
C165        C  0.24197594  0.02435122  0.42231625     0.03000
C166        C  0.21724274  0.47024317  0.41854255     0.02900
C167        C  0.19609515  0.44786032  0.38086579    -0.17600
C168        C  0.19539218  0.47570598  0.34897659     0.03000
C169        C  0.21443502  0.02657408  0.35475812     0.02900
C170        C  0.23788205  0.05018406  0.39026322    -0.17600
H171        H  0.25419857  0.09027873  0.39243204     0.05000
H172        H  0.17902702  0.40799928  0.37637562     0.05000
O173        O  0.23649786  0.41717320  0.45796817    -0.81100
C174        C  0.07502919  0.27275718  0.55388520     0.98200
O175        O  0.08202587  0.31287347  0.53886244    -0.70200
O176        O  0.16311286  0.40883233  0.54376545    -0.73800
Al177      Al  0.12855198  0.35880159  0.50108555     1.49000
C178        C  0.20847188  0.43922476  0.55231755     0.93500
O179        O  0.25779829  0.34979017  0.54271673    -0.80000
O180        O  0.18999632  0.26372542  0.46121084    -0.73600
Al181      Al  0.23930300  0.37849012  0.50092932     1.90100
O182        O  0.20268964  0.27140527  0.54121574    -0.72700
O183        O  0.09356584  0.24794694  0.46594334    -0.72500
O184        O  0.10567183  0.25722404  0.54698529    -0.78200
O185        O  0.08493441  0.31352218  0.45776009    -0.76400
O186        O  0.17271236  0.33499221  0.50190108    -1.12500
O187        O  0.16350022  0.41051266  0.46353343    -0.71700
C188        C  0.20646211  0.43277038  0.45007193     0.99000
C189        C  0.24545341  0.30590803  0.55196940     0.95400
Al190      Al  0.15033634  0.26783861  0.50377293     1.55600
O191        O  0.24096210  0.42993607  0.53827080    -0.76300
C192        C  0.06949686  0.26755374  0.45041459     0.99600
C193        C  0.23376236  0.29320223  0.45192248     0.94400
O194        O  0.25354961  0.33817695  0.46417974    -0.81700
C195        C  0.34673139  0.28150280  0.82349606    -0.01300
C196        C  0.39159112  0.29618596  0.80443519     0.07300
C197        C  0.43378122  0.30784628  0.82848203    -0.07300
C198        C  0.42955707  0.30244297  0.86962648     0.04700
C199        C  0.38833017  0.30028279  0.88807744    -0.14500
C200        C  0.34622904  0.28716860  0.86479633    -0.07900
C201        C  0.39398381  0.29895143  0.76022266     0.05600
C202        C  0.42061645  0.34543421  0.74358344    -0.09000
C203        C  0.41370824  0.35129888  0.70298405     0.00600
C204        C  0.37615480  0.31170454  0.68030313     0.00500
C205        C  0.35502768  0.26467932  0.69521476    -0.12500
C206        C  0.36537861  0.25773869  0.73400296     0.01000
C207        C  0.44606587  0.39649695  0.68438601     0.40300
C208        C  0.34735380  0.20742279  0.74386882     0.36900
C209        C  0.30058731  0.25327088  0.80252928     0.36600
C210        C  0.46674265  0.29943297  0.89394014     0.37400
N211        N  0.47248858  0.43207206  0.66875314    -0.43400
N212        N  0.33356254  0.16584898  0.74757550    -0.43900
N213        N  0.49307634  0.29455955  0.91604456    -0.41200
N214        N  0.26395779  0.22611764  0.78629837    -0.42700
H215        H  0.31384130  0.28280055  0.87887290     0.13500
H216        H  0.46872606  0.31809378  0.81529175     0.10000
H217        H  0.44501397  0.37705923  0.76255519     0.11100
H218        H  0.32855540  0.23319799  0.67681800     0.16900
C219        C  0.10872828  0.45158519  0.73701799    -0.01300
C220        C  0.13330478  0.44028506  0.76789579     0.07300
C221        C  0.17407019  0.43463096  0.75794465    -0.07300
C222        C  0.19036187  0.44055696  0.71906034     0.04700
C223        C  0.17125840  0.45982859  0.69050471    -0.14500
C224        C  0.12922675  0.46369049  0.69936614    -0.07900
C225        C  0.11830308  0.43385188  0.81051415     0.05600
C226        C  0.11246843  0.39176748  0.83012326    -0.09000
C227        C  0.09973008  0.38474044  0.87014198     0.00600
C228        C  0.09488690  0.42141351  0.89244383     0.00500
C229        C  0.10707532  0.46594088  0.87417621    -0.12500
C230        C  0.11442896  0.47071863  0.83331795     0.01000
C231        C  0.09258093  0.33986982  0.88737476     0.40300
C232        C  0.11075464  0.51044285  0.81534552     0.36900
C233        C  0.06286866  0.45137385  0.74306128     0.36600
C234        C  0.22637898  0.92615774  0.70864838     0.37400
N235        N  0.08859346  0.30462197  0.90179497    -0.43400
N236        N  0.10325187  0.04024028  0.80138877    -0.43900
N237        N  0.25396308  0.91358849  0.69829601    -0.41200
N238        N  0.02688080  0.45265502  0.74874668    -0.42700
H239        H  0.11302286  0.47702507  0.67718229     0.13500
H240        H  0.19349320  0.42576935  0.78071791     0.10000
H241        H  0.11598294  0.36325888  0.81371630     0.11100
H242        H  0.10429794  0.49482550  0.89102840     0.16900
C243        C  0.07068225  0.37050296  0.17900184    -0.01300
C244        C  0.11878805  0.40950131  0.18693117     0.07300
C245        C  0.14882374  0.42921424  0.15451296    -0.07300
C246        C  0.12985888  0.41539393  0.11512742     0.04700
C247        C  0.07971634  0.38054883  0.10711222    -0.14500
C248        C  0.05151734  0.35712910  0.13990887    -0.07900
C249        C  0.13872931  0.42660561  0.22893982     0.05600
C250        C  0.18532189  0.43266460  0.24078336    -0.09000
C251        C  0.20353941  0.44609112  0.28032085     0.00600
C252        C  0.17427008  0.45172957  0.30921800     0.00500
C253        C  0.12749674  0.44444989  0.29779702    -0.12500
C254        C  0.11087129  0.43498778  0.25796810     0.01000
C255        C  0.25304097  0.45584587  0.29035276     0.40300
C256        C  0.06688455  0.43794723  0.24751357     0.36900
C257        C  0.04234940  0.34107127  0.21083521     0.36600
C258        C  0.16188801  0.43981489  0.08365352     0.37400
N259        N  0.29280528  0.46393048  0.29842070    -0.43400
N260        N  0.03187273  0.44070396  0.23913791    -0.43900
N261        N  0.18629490  0.45772425  0.05713346    -0.41200
N262        N  0.02283136  0.31878142  0.23798651    -0.42700
H263        H  0.01367801  0.32901147  0.13547169     0.13500
H264        H  0.18676197  0.45681734  0.15994219     0.10000
H265        H  0.20773225  0.42717131  0.21915068     0.11100
H266        H  0.10573837  0.94975295  0.31989642     0.16900
C267        C  0.35003776  0.26852267  0.25444123    -0.01300
C268        C  0.31210737  0.25144824  0.22361363     0.07300
C269        C  0.26300190  0.22439219  0.23506889    -0.07300
C270        C  0.25177981  0.21777570  0.27529512     0.04700
C271        C  0.28970647  0.23782420  0.30496353    -0.14500
C272        C  0.33831589  0.25868889  0.29407748    -0.07900
C273        C  0.32296024  0.26692037  0.18110233     0.05600
C274        C  0.35523610  0.31621231  0.17504971    -0.09000
C275        C  0.37136155  0.33414251  0.13804922     0.00600
C276        C  0.35627743  0.30166247  0.10377760     0.00500
C277        C  0.32069725  0.25208462  0.10878604    -0.12500
C278        C  0.30201014  0.23556242  0.14663752     0.01000
C279        C  0.40426395  0.38680065  0.13758465     0.40300
C280        C  0.25929779  0.18794266  0.14877521     0.36900
C281        C  0.40062323  0.30418859  0.24884588     0.36600
C282        C  0.20113630  0.19427683  0.28617063     0.37400
N283        N  0.43035194  0.42903317  0.13850905    -0.43400
N284        N  0.22340155  0.15104139  0.15112081    -0.43900
N285        N  0.16093730  0.17551204  0.29602472    -0.41200
N286        N  0.44080381  0.33487306  0.24575276    -0.42700
H287        H  0.36736249  0.27498263  0.31720532     0.13500
H288        H  0.23297148  0.21258236  0.21329835     0.10000
H289        H  0.36825900  0.34172321  0.19974870     0.11100
H290        H  0.30767949  0.22575800  0.08389326     0.16900
C291        C  0.38834855  0.14119918  0.15231312    -0.01300
C292        C  0.41798745  0.13071590  0.17858429     0.07300
C293        C  0.44119405  0.10491900  0.16276349    -0.07300
C294        C  0.43417045  0.08932153  0.12243332     0.04700
C295        C  0.40676150  0.10274082  0.09613464    -0.14500
C296        C  0.38718708  0.13210193  0.11121765    -0.07900
C297        C  0.42476658  0.14546308  0.22239119     0.05600
C298        C  0.42408816  0.11193815  0.25025033    -0.09000
C299        C  0.43626549  0.12587190  0.29058242     0.00600
C300        C  0.45136166  0.17488885  0.30368695     0.00500
C301        C  0.44812060  0.20733353  0.27709092    -0.12500
C302        C  0.43414165  0.19293696  0.23705487     0.01000
C303        C  0.43245525  0.08920004  0.31810954     0.40300
C304        C  0.43108480  0.22830414  0.21175456     0.36900
C305        C  0.35131562  0.15114457  0.16794148     0.36600
C306        C  0.45273867  0.05689577  0.10897869     0.37400
N307        N  0.42841248  0.05956852  0.34028973    -0.43400
N308        N  0.92764409  0.25527657  0.19005131    -0.43900
N309        N  0.46727427  0.03072429  0.09794002    -0.41200
N310        N  0.32293214  0.15879251  0.18368434    -0.42700
H311        H  0.36238754  0.13873798  0.09215668     0.13500
H312        H  0.46369957  0.09555640  0.18210985     0.10000
H313        H  0.41454435  0.07481033  0.24056033     0.11100
H314        H  0.95858482  0.24477804  0.28745192     0.16900
C315        C  0.43536180  0.15843809  0.74610718    -0.01300
C316        C  0.43579482  0.11453639  0.75837142     0.07300
C317        C  0.44266372  0.08668104  0.72735663    -0.07300
C318        C  0.45526084  0.10510736  0.68882430     0.04700
C319        C  0.45637512  0.14973322  0.67942948    -0.14500
C320        C  0.44008933  0.17180223  0.70673298    -0.07900
C321        C  0.42818619  0.09800164  0.80170496     0.05600
C322        C  0.40285990  0.11461297  0.82678304    -0.09000
C323        C  0.39923338  0.10651520  0.86775399     0.00600
C324        C  0.41206017  0.07296265  0.88396358     0.00500
C325        C  0.43487483  0.05322202  0.85958132    -0.12500
C326        C  0.44478848  0.06659670  0.81959786     0.01000
C327        C  0.38167348  0.13207470  0.89367632     0.40300
C328        C  0.46920358  0.04414534  0.79838200     0.36900
C329        C  0.44147748  0.19862593  0.77134360     0.36600
C330        C  0.46706607  0.07821446  0.65939007     0.37400
N331        N  0.37018824  0.15317205  0.91619096    -0.43400
N332        N  0.98859229  0.02477027  0.78246568    -0.43900
N333        N  0.47617506  0.05670455  0.63541160    -0.41200
N334        N  0.44889268  0.23605037  0.78537006    -0.42700
H335        H  0.44030622  0.20588233  0.69875619     0.13500
H336        H  0.43851999  0.05069903  0.73236609     0.10000
H337        H  0.38535552  0.13396360  0.81441135     0.11100
H338        H  0.44333761  0.02569715  0.87147470     0.16900
C339        C  0.24781329  0.30334494  0.73879347    -0.01300
C340        C  0.27613210  0.34309876  0.76651949     0.07300
C341        C  0.31746622  0.38495056  0.75287369    -0.07300
C342        C  0.33134970  0.38630935  0.71337724     0.04700
C343        C  0.30451231  0.34486828  0.68750568    -0.14500
C344        C  0.26271249  0.30459272  0.70039904    -0.07900
C345        C  0.26365283  0.34311989  0.80908910     0.05600
C346        C  0.30056119  0.35567080  0.83891295    -0.09000
C347        C  0.29201257  0.36141789  0.87880797     0.00600
C348        C  0.24590661  0.35540589  0.89000083     0.00500
C349        C  0.20855518  0.34182454  0.86012142    -0.12500
C350        C  0.21784355  0.33754343  0.81991735     0.01000
C351        C  0.33353604  0.38485122  0.90678788     0.40300
C352        C  0.18290367  0.33376751  0.78925112     0.36900
C353        C  0.20589719  0.25755212  0.74740614     0.36600
C354        C  0.37055029  0.43120386  0.69934093     0.37400
N355        N  0.36441606  0.40634459  0.93082507    -0.43400
N356        N  0.15735687  0.33071234  0.76253246    -0.43900
N357        N  0.40179551  0.46731652  0.68775846    -0.41200
N358        N  0.17438801  0.21755182  0.74940352    -0.42700
H359        H  0.24227163  0.27258546  0.68020225     0.13500
H360        H  0.33831704  0.41691569  0.77284146     0.10000
H361        H  0.33737554  0.36459245  0.83065450     0.11100
H362        H  0.17480061  0.34153187  0.86738353     0.16900
C363        C  0.32993912  0.37411149  0.25971340    -0.01300
C364        C  0.28677805  0.36463314  0.23619187     0.07300
C365        C  0.24235583  0.34462364  0.25637529    -0.07300
C366        C  0.23882886  0.32687979  0.29476467     0.04700
C367        C  0.27933818  0.32620913  0.31346796    -0.14500
C368        C  0.32525402  0.35328812  0.29705721    -0.07900
C369        C  0.28416617  0.37067982  0.19131546     0.05600
C370        C  0.24203831  0.33603536  0.16799047    -0.09000
C371        C  0.23508438  0.34287213  0.12729853     0.00600
C372        C  0.27376490  0.37988060  0.10685580     0.00500
C373        C  0.31768644  0.41053940  0.12921040    -0.12500
C374        C  0.32036463  0.41032922  0.17082164     0.01000
C375        C  0.18634585  0.31665468  0.10891956     0.40300
C376        C  0.35539431  0.45602216  0.19070324     0.36900
C377        C  0.37995681  0.40474488  0.24857913     0.36600
C378        C  0.19484454  0.31286083  0.31592960     0.37400
N379        N  0.14706489  0.29682263  0.09433230    -0.43400
N380        N  0.38370401  0.49350032  0.20561586    -0.43900
N381        N  0.16163105  0.30414439  0.33520334    -0.41200
N382        N  0.42085407  0.42871982  0.24112272    -0.42700
H383        H  0.35771211  0.35722594  0.31329481     0.13500
H384        H  0.21021373  0.34321119  0.24224819     0.10000
H385        H  0.21254757  0.30539411  0.18213823     0.11100
H386        H  0.34728524  0.44097212  0.11472037     0.16900
C387        C  0.04977457  0.19653988  0.15687526    -0.01300
C388        C  0.08670435  0.20138396  0.18473976     0.07300
C389        C  0.12871319  0.20142231  0.16983492    -0.07300
C390        C  0.12954747  0.19065189  0.12904390     0.04700
C391        C  0.08577586  0.17125547  0.10539083    -0.14500
C392        C  0.04724220  0.17735442  0.11869468    -0.07900
C393        C  0.08248596  0.20960038  0.22810963     0.05600
C394        C  0.06742164  0.17022784  0.25357117    -0.09000
C395        C  0.05739320  0.17547646  0.29336211     0.00600
C396        C  0.05698489  0.21889370  0.30711985     0.00500
C397        C  0.07440279  0.25925220  0.28194724    -0.12500
C398        C  0.08971835  0.25521847  0.24358119     0.01000
C399        C  0.54771267  0.13585176  0.31962787     0.40300
C400        C  0.11488717  0.29741339  0.21980448     0.36900
C401        C  0.02344026  0.22317060  0.16143596     0.36600
C402        C  0.17523471  0.20654088  0.10955365     0.37400
N403        N  0.54178022  0.10481788  0.34094629    -0.43400
N404        N  0.13674681  0.32793137  0.19799628    -0.43900
N405        N  0.20995519  0.22031137  0.09099936    -0.41200
N406        N  0.00461740  0.24731923  0.15947519    -0.42700
H407        H  0.01707889  0.17086157  0.09811582     0.13500
H408        H  0.16101846  0.21252384  0.18913728     0.10000
H409        H  0.06315355  0.13531814  0.24218823     0.11100
H410        H  0.07627566  0.29364114  0.29230108     0.16900
C411        C  0.04451320  0.20772499  0.85316380    -0.01300
C412        C  0.07768454  0.22122347  0.82210806     0.07300
C413        C  0.12535188  0.22972170  0.83137404    -0.07300
C414        C  0.13897044  0.22154654  0.86875616     0.04700
C415        C  0.10328726  0.20052052  0.89727921    -0.14500
C416        C  0.05673411  0.19546127  0.88977225    -0.07900
C417        C  0.06417182  0.22145853  0.77930605     0.05600
C418        C  0.05567066  0.25903755  0.76486721    -0.09000
C419        C  0.05037286  0.26341193  0.72367444     0.00600
C420        C  0.05396036  0.22992216  0.69622612     0.00500
C421        C  0.06405592  0.19358167  0.71083334    -0.12500
C422        C  0.06721687  0.18799182  0.75163757     0.01000
C423        C  0.03917390  0.30110230  0.71039585     0.40300
C424        C  0.07366821  0.14719485  0.76432280     0.36900
C425        C  0.00078851  0.21167956  0.85190480     0.36600
C426        C  0.18837263  0.23003163  0.87617911     0.37400
N427        N  0.03017106  0.33140246  0.69996646    -0.43400
N428        N  0.08039898  0.11522609  0.77395205    -0.43900
N429        N  0.22700988  0.23475147  0.88334028    -0.41200
N430        N  0.96620080  0.21567300  0.85667137    -0.42700
H431        H  0.02989262  0.18208409  0.91252481     0.13500
H432        H  0.15199132  0.24175610  0.80915522     0.10000
H433        H  0.05365331  0.28522210  0.78570044     0.11100
H434        H  0.06551055  0.16685696  0.69015511     0.16900
C435        C  0.23216308  0.08541150  0.76057929    -0.01300
C436        C  0.26161609  0.07239675  0.78503178     0.07300
C437        C  0.29053153  0.05452676  0.76669764    -0.07300
C438        C  0.28902836  0.04846612  0.72501241     0.04700
C439        C  0.25561393  0.05639465  0.70116463    -0.14500
C440        C  0.22825029  0.07605727  0.71926603    -0.07900
C441        C  0.26175082  0.07763988  0.82933545     0.05600
C442        C  0.23575898  0.03593896  0.85201453    -0.09000
C443        C  0.22789424  0.04171311  0.89239748     0.00600
C444        C  0.24044947  0.08873015  0.90867203     0.00500
C445        C  0.26933655  0.12994524  0.88718125    -0.12500
C446        C  0.28227825  0.12443596  0.84897184     0.01000
C447        C  0.20765413  0.00024873  0.91746997     0.40300
C448        C  0.32421403  0.16562181  0.83500139     0.36900
C449        C  0.20655776  0.10957790  0.77718504     0.36600
C450        C  0.31970091  0.03130258  0.70661673     0.37400
N451        N  0.19352608  0.96876357  0.93953381    -0.43400
N452        N  0.36195902  0.19811369  0.82839492    -0.43900
N453        N  0.34286338  0.01714490  0.68990019    -0.41200
N454        N  0.18686429  0.12985694  0.79061992    -0.42700
H455        H  0.20270192  0.08268542  0.70123785     0.13500
H456        H  0.31417974  0.04539195  0.78471827     0.10000
H457        H  0.22121327  0.99937058  0.83816122     0.11100
H458        H  0.28164247  0.16663867  0.90035078     0.16900
C459        C  0.22482978  0.05556288  0.17205372    -0.01300
C460        C  0.18909682  0.05351583  0.19843303     0.07300
C461        C  0.14085779  0.03083113  0.18252232    -0.07300
C462        C  0.13035212  0.02438025  0.14189418     0.04700
C463        C  0.16923128  0.04317499  0.11470296    -0.14500
C464        C  0.21650359  0.05582799  0.13079956    -0.07900
C465        C  0.19994018  0.06838863  0.24227542     0.05600
C466        C  0.24812237  0.08696856  0.25893983    -0.09000
C467        C  0.25518802  0.07947074  0.29855411     0.00600
C468        C  0.21428834  0.05675892  0.32197364     0.00500
C469        C  0.17030087  0.05482568  0.30940059    -0.12500
C470        C  0.16315618  0.06217810  0.26966386     0.01000
C471        C  0.30340989  0.09172629  0.31429328     0.40300
C472        C  0.11877055  0.06418487  0.25939144     0.36900
C473        C  0.26366017  0.04562796  0.18567385     0.36600
C474        C  0.07855956  0.99999188  0.13068550     0.37400
N475        N  0.34123642  0.10125519  0.32877557    -0.43400
N476        N  0.08255260  0.06485096  0.25159382    -0.43900
N477        N  0.03659289  0.98219269  0.12427032    -0.41200
N478        N  0.29346761  0.03635611  0.19772601    -0.42700
H479        H  0.24764420  0.06742860  0.11263160     0.13500
H480        H  0.11003631  0.01540169  0.20122717     0.10000
H481        H  0.28008408  0.10431879  0.24133376     0.11100
H482        H  0.14046705  0.54409907  0.32941032     0.16900
O483        O  0.43643982  0.73502867  0.53280271    -0.81100
C484        C  0.27247932  0.56118078  0.45504038     0.98200
O485        O  0.31915881  0.58012670  0.45609211    -0.70200
O486        O  0.41739228  0.65766147  0.46035550    -0.73800
Al487      Al  0.36464016  0.62214014  0.49821840     1.49000
C488        C  0.43896459  0.70059129  0.44611709     0.93500
O489        O  0.33916023  0.74398281  0.45984579    -0.80000
O490        O  0.27982281  0.69915679  0.54015264    -0.73600
Al491      Al  0.38349903  0.73274398  0.49627244     1.90100
O492        O  0.26646645  0.67768747  0.46091755    -0.72700
O493        O  0.27032858  0.60503663  0.55233713    -0.72500
O494        O  0.25307194  0.58338480  0.47348797    -0.78200
O495        O  0.31858161  0.57444742  0.53665170    -0.76400
O496        O  0.34112025  0.66638184  0.50005152    -1.12500
O497        O  0.41348055  0.65626546  0.53923630    -0.71700
C498        C  0.44444275  0.70153925  0.54713377     0.99000
C499        C  0.29336719  0.72128520  0.44936335     0.95400
Al500      Al  0.27495121  0.64375814  0.50611771     1.55600
O501        O  0.42076296  0.72896648  0.45235465    -0.76300
C502        C  0.28227028  0.57100699  0.55598937     0.99600
C503        C  0.31481058  0.74200210  0.54941289     0.94400
O504        O  0.35766536  0.75338071  0.53854636    -0.81700
N505        N  0.15676234  0.63130605  0.94875934    -0.35900
N506        N  0.09687375  0.65389715  0.99827512    -0.56500
N507        N  0.11048122  0.59035236  0.08654254    -0.35900
N508        N  0.18296445  0.58041697  0.00622802    -0.56500
C509        C  0.12749535  0.64030643  0.92356356     0.27700
C510        C  0.17463506  0.60652237  0.92713535     0.27700
C511        C  0.07837378  0.59873774  0.06490130     0.27700
C512        C  0.11874179  0.55812642  0.06486582     0.27700
C513        C  0.10163359  0.68467373  0.96984520     0.36300
C514        C  0.08395101  0.66916449  0.03107449     0.36300
C515        C  0.21681490  0.58615309  0.98008298     0.36300
C516        C  0.19256104  0.56340874  0.03990377     0.36300
C517        C  0.12450494  0.61840472  0.88644366    -0.21200
C518        C  0.15566776  0.59878335  0.88851557    -0.21200
C519        C  0.06011040  0.56527787  0.03238517    -0.21200
C520        C  0.08747623  0.54126078  0.03138611    -0.21200
C521        C  0.09180488  0.72137986  0.98430452    -0.22300
C522        C  0.08137333  0.71192567  0.02403964    -0.22300
C523        C  0.25053405  0.57422175  0.99707616    -0.22300
C524        C  0.23546210  0.56017633  0.03525268    -0.22300
C525        C  0.11154626  0.67550197  0.93131368    -0.17600
C526        C  0.21168760  0.59536211  0.94018000    -0.17800
C527        C  0.16021212  0.55183635  0.07213693    -0.17600
C528        C  0.07897235  0.64471678  0.06654573    -0.17600
H529        H  0.10529865  0.62017463  0.85977884     0.15300
H530        H  0.16569723  0.58300221  0.86399048     0.15300
H531        H  0.03475303  0.56347902  0.00886771     0.15300
H532        H  0.08695821  0.51687505  0.00749172     0.15300
H533        H  0.09232140  0.75150396  0.96822683     0.13600
H534        H  0.07199755  0.73312444  0.04471036     0.13600
H535        H  0.28110757  0.57332991  0.98296335     0.13600
H536        H  0.25301003  0.54618988  0.05498695     0.13600
H537        H  0.16992313  0.64769016  0.97705965     0.26800
H538        H  0.13191103  0.61071985  0.11139398     0.26800
N539        N  0.31161894  0.97031172  0.93712070    -0.35900
N540        N  0.37418211  0.54929146  0.99026978    -0.56500
N541        N  0.31667577  0.98352182  0.04887900    -0.35900
N542        N  0.25200197  0.90022904  0.99715872    -0.56500
C543        C  0.33756009  0.50723000  0.91206024     0.27700
C544        C  0.26984643  0.93670047  0.91726155     0.27700
C545        C  0.33517280  0.52816877  0.06842807     0.27700
C546        C  0.28077431  0.95049249  0.07092363     0.27700
C547        C  0.40325345  0.56513352  0.95894428     0.36300
C548        C  0.40033702  0.57668546  0.02266994     0.36300
C549        C  0.24398680  0.87006183  0.96496023     0.36300
C550        C  0.25397751  0.87633383  0.02984719     0.36300
C551        C  0.31103094  0.49767364  0.87632858    -0.21200
C552        C  0.26793130  0.95395263  0.87987422    -0.21200
C553        C  0.30923309  0.52293861  0.10243540    -0.21200
C554        C  0.27505352  0.97392067  0.10415410    -0.21200
C555        C  0.44862615  0.60418558  0.97133395    -0.22300
C556        C  0.44670281  0.61173320  0.01195144    -0.22300
C557        C  0.23809687  0.82498079  0.97729112    -0.22300
C558        C  0.24474683  0.82910975  0.01861533    -0.22300
C559        C  0.38602186  0.54651307  0.91954815    -0.17600
C560        C  0.24613695  0.88575275  0.92527485    -0.17600
C561        C  0.26609765  0.89996027  0.06838477    -0.17600
C562        C  0.38053897  0.56987296  0.06077614    -0.17600
H563        H  0.32172718  0.51837223  0.84967667     0.15300
H564        H  0.24076486  0.93520382  0.85598294     0.15300
H565        H  0.31650098  0.55024951  0.12546169     0.15300
H566        H  0.25271558  0.95666945  0.12911317     0.15300
H567        H  0.47951353  0.62492690  0.95317831     0.13600
H568        H  0.47578208  0.63947118  0.03121718     0.13600
H569        H  0.23198598  0.79344630  0.95849927     0.13600
H570        H  0.24440799  0.80139625  0.03781672     0.13600
H571        H  0.32668079  0.96366213  0.96268128     0.26800
H572        H  0.33476168  0.97406441  0.02751814     0.26800
N573        N  0.46588170  0.84166310  0.07884057    -0.35900
N574        N  0.05739027  0.89934079  0.99971696    -0.56500
N575        N  0.48042810  0.88091140  0.94799503    -0.35900
N576        N  0.38994461  0.83405041  0.99594632    -0.56500
C577        C  0.00952671  0.87977790  0.07009983     0.27700
C578        C  0.43148478  0.85461989  0.06880662     0.27700
C579        C  0.01961374  0.91107243  0.92685957     0.27700
C580        C  0.43952705  0.87501480  0.92833801     0.27700
C581        C  0.07378341  0.88279284  0.02982336     0.36300
C582        C  0.07964458  0.89834703  0.96643258     0.36300
C583        C  0.36193392  0.80764835  0.02538775     0.36300
C584        C  0.37142567  0.80959985  0.96126557     0.36300
C585        C  0.00241682  0.91705935  0.05463857    -0.21200
C586        C  0.45294051  0.90147721  0.05395739    -0.21200
C587        C  0.00276042  0.92888153  0.89580432    -0.21200
C588        C  0.45268900  0.90630515  0.89693381    -0.21200
C589        C  0.10827002  0.87044361  0.01567667    -0.22300
C590        C  0.11331566  0.88199403  0.97564253    -0.22300
C591        C  0.32122020  0.76593760  0.00852646    -0.22300
C592        C  0.32803845  0.76670981  0.96749976    -0.22300
C593        C  0.05328893  0.87686960  0.06794129    -0.17600
C594        C  0.38115666  0.82068599  0.06526811    -0.17600
C595        C  0.39666511  0.82853489  0.92632029    -0.17600
C596        C  0.06586201  0.91118579  0.92967419    -0.17600
H597        H  0.02990720  0.95085413  0.04313308     0.15300
H598        H  0.43444318  0.92063778  0.04181568     0.15300
H599        H  0.02197852  0.95080354  0.87135834     0.15300
H600        H  0.42836750  0.90626140  0.87326816     0.15300
H601        H  0.12732340  0.85454318  0.03209846     0.13600
H602        H  0.13788094  0.87720164  0.95612140     0.13600
H603        H  0.29128656  0.73669989  0.02324689     0.13600
H604        H  0.30420550  0.73903999  0.94531019     0.13600
H605        H  0.45890095  0.80614463  0.08580662     0.26800
H606        H  0.47933687  0.85536767  0.96821169     0.26800
C607        C  0.03172433  0.73932650  0.41613991     0.03000
C608        C  0.47694791  0.71234240  0.41411157     0.02900
C609        C  0.45313467  0.69226883  0.37664322    -0.17600
C610        C  0.47869521  0.69529640  0.34229130     0.03000
C611        C  0.03032858  0.71870137  0.34407916     0.02900
C612        C  0.05575012  0.73993537  0.38057161    -0.17600
H613        H  0.09545082  0.75701241  0.38153013     0.05000
H614        H  0.41324543  0.67358536  0.37397151     0.05000
C615        C  0.27449418  0.74201297  0.41661733     0.03000
C616        C  0.25814075  0.77955012  0.41912899     0.02900
C617        C  0.26163471  0.80661747  0.38508604    -0.17600
C618        C  0.27389110  0.79489057  0.34838556     0.03000
C619        C  0.28044897  0.75286859  0.34454876     0.02900
C620        C  0.28255309  0.72836470  0.37837362    -0.17600
H621        H  0.29265951  0.69938626  0.37490149     0.05000
H622        H  0.25351622  0.83710390  0.38681556     0.05000
C623        C  0.03634899  0.74729475  0.58537396     0.03000
C624        C  0.48322803  0.71177504  0.58010245     0.02900
C625        C  0.46097009  0.67893705  0.61106887    -0.17600
C626        C  0.48520615  0.68183970  0.64679539     0.03000
C627        C  0.03250923  0.72161607  0.65491500     0.02900
C628        C  0.05804599  0.75273010  0.62412810    -0.17600
H629        H  0.09611873  0.78055222  0.63017293     0.05000
H630        H  0.42237181  0.65111124  0.60858213     0.05000
C631        C  0.27926941  0.80005379  0.58254694     0.03000
C632        C  0.31091506  0.77666894  0.58009766     0.02900
C633        C  0.34764252  0.78922889  0.61055837    -0.17600
C634        C  0.35192223  0.81817563  0.64422488     0.03000
C635        C  0.31953894  0.83768695  0.64780686     0.02900
C636        C  0.28619689  0.83067189  0.61647122    -0.17600
H637        H  0.26183412  0.84647676  0.62044865     0.05000
H638        H  0.37138689  0.77235625  0.61018842     0.05000
C639        C  0.25824027  0.53294913  0.58852282     0.03000
C640        C  0.22141917  0.97932611  0.58548366     0.02900
C641        C  0.19277474  0.95860192  0.61915190    -0.17600
C642        C  0.20084376  0.98468549  0.65549800     0.03000
C643        C  0.24042428  0.53297093  0.66013001     0.02900
C644        C  0.26752932  0.55657243  0.62698415    -0.17600
H645        H  0.29608949  0.59478830  0.63122518     0.05000
H646        H  0.16441886  0.92011197  0.61789055     0.05000
C647        C  0.24184549  0.52448279  0.42236046     0.03000
C648        C  0.21726638  0.97009544  0.41861707     0.02900
C649        C  0.19619372  0.94760077  0.38095779    -0.17600
C650        C  0.19560484  0.97534783  0.34896971     0.03000
C651        C  0.21420812  0.52691840  0.35488727     0.02900
C652        C  0.23762434  0.55040144  0.39042700    -0.17600
H653        H  0.25392980  0.59049418  0.39268116     0.05000
H654        H  0.17907991  0.90772527  0.37655954     0.05000
O655        O  0.23658556  0.91727925  0.45825188    -0.81100
C656        C  0.07500801  0.77269689  0.55400177     0.98200
O657        O  0.08214305  0.81291557  0.53908986    -0.70200
O658        O  0.16321189  0.90888465  0.54376420    -0.73800
Al659      Al  0.12857667  0.85871314  0.50120088     1.49000
C660        C  0.20856964  0.93914079  0.55243094     0.93500
O661        O  0.25797414  0.84962129  0.54266106    -0.80000
O662        O  0.19017713  0.76363595  0.46148402    -0.73600
Al663      Al  0.23935963  0.87841776  0.50104752     1.90100
O664        O  0.20262569  0.77133757  0.54150213    -0.72700
O665        O  0.09372970  0.74785783  0.46596708    -0.72500
O666        O  0.10554059  0.75705198  0.54701529    -0.78200
O667        O  0.08484621  0.81331929  0.45798518    -0.76400
O668        O  0.17275326  0.83490724  0.50203762    -1.12500
O669        O  0.16342303  0.91028248  0.46352214    -0.71700
C670        C  0.20645262  0.93269251  0.45019990     0.99000
C671        C  0.24550435  0.80577587  0.55206771     0.95400
Al672      Al  0.15038046  0.76774581  0.50392531     1.55600
O673        O  0.24103484  0.92971102  0.53853096    -0.76300
C674        C  0.06954531  0.76740134  0.45053283     0.99600
C675        C  0.23382815  0.79320522  0.45201296     0.94400
O676        O  0.25351958  0.83822135  0.46413832    -0.81700
C677        C  0.34671677  0.78157591  0.82334912    -0.01300
C678        C  0.39160856  0.79631707  0.80432566     0.07300
C679        C  0.43376228  0.80793741  0.82840008    -0.07300
C680        C  0.42946520  0.80237100  0.86952131     0.04700
C681        C  0.38823319  0.80020690  0.88797142    -0.14500
C682        C  0.34615100  0.78714114  0.86466253    -0.07900
C683        C  0.39408694  0.79913111  0.76011849     0.05600
C684        C  0.42078101  0.84563497  0.74352655    -0.09000
C685        C  0.41405126  0.85154172  0.70290523     0.00600
C686        C  0.37661927  0.81195037  0.68014049     0.00500
C687        C  0.35549726  0.76490100  0.69500094    -0.12500
C688        C  0.36561588  0.75793090  0.73384340     0.01000
C689        C  0.44643043  0.89679878  0.68438656     0.40300
C690        C  0.34737588  0.70759127  0.74373270     0.36900
C691        C  0.30061634  0.75342162  0.80230265     0.36600
C692        C  0.46665124  0.79932427  0.89380905     0.37400
N693        N  0.47287314  0.93243416  0.66883179    -0.43400
N694        N  0.33339678  0.66598842  0.74745970    -0.43900
N695        N  0.49304244  0.79444901  0.91585009    -0.41200
N696        N  0.26403514  0.72635639  0.78596266    -0.42700
H697        H  0.31373105  0.78273192  0.87872143     0.13500
H698        H  0.46873825  0.81825590  0.81523944     0.10000
H699        H  0.44505811  0.87724638  0.76255649     0.11100
H700        H  0.32911245  0.73343415  0.67654299     0.16900
C701        C  0.10874131  0.95157091  0.73703137    -0.01300
C702        C  0.13327627  0.94034971  0.76799512     0.07300
C703        C  0.17411407  0.93476313  0.75816427    -0.07300
C704        C  0.19052996  0.94069133  0.71931972     0.04700
C705        C  0.17140629  0.95980939  0.69064410    -0.14500
C706        C  0.12930317  0.96359902  0.69939179    -0.07900
C707        C  0.11816552  0.93390220  0.81058590     0.05600
C708        C  0.11237139  0.89184829  0.83022146    -0.09000
C709        C  0.09966333  0.88484449  0.87024733     0.00600
C710        C  0.09483979  0.92153983  0.89254503     0.00500
C711        C  0.10698088  0.96604029  0.87423723    -0.12500
C712        C  0.11424654  0.97075955  0.83336275     0.01000
C713        C  0.09251366  0.83995729  0.88746130     0.40300
C714        C  0.11043309  0.01039585  0.81535643     0.36900
C715        C  0.06284465  0.95132782  0.74296086     0.36600
C716        C  0.22603169  0.42584623  0.70820523     0.37400
N717        N  0.08849877  0.80466145  0.90181923    -0.43400
N718        N  0.10367363  0.54035730  0.80139499    -0.43900
N719        N  0.25343146  0.41311526  0.69768016    -0.41200
N720        N  0.02681365  0.95256855  0.74853927    -0.42700
H721        H  0.11309533  0.97683147  0.67712738     0.13500
H722        H  0.19348784  0.92592413  0.78100079     0.10000
H723        H  0.11591432  0.86334560  0.81382746     0.11100
H724        H  0.10425454  0.99495937  0.89108355     0.16900
C725        C  0.07050870  0.87007928  0.17908156    -0.01300
C726        C  0.11865899  0.90899482  0.18703578     0.07300
C727        C  0.14869712  0.92870627  0.15461874    -0.07300
C728        C  0.12973467  0.91496317  0.11523442     0.04700
C729        C  0.07957023  0.88024512  0.10720269    -0.14500
C730        C  0.05132200  0.85686454  0.13998856    -0.07900
C731        C  0.13865694  0.92601018  0.22904781     0.05600
C732        C  0.18537697  0.93230415  0.24076872    -0.09000
C733        C  0.20373744  0.94586223  0.28026037     0.00600
C734        C  0.17442544  0.95122621  0.30926706     0.00500
C735        C  0.12750694  0.94363676  0.29798162    -0.12500
C736        C  0.11080328  0.93422862  0.25817305     0.01000
C737        C  0.25344862  0.95613744  0.29010144     0.40300
C738        C  0.06683275  0.93725839  0.24782399     0.36900
C739        C  0.04212539  0.84057070  0.21086409     0.36600
C740        C  0.16179658  0.93933463  0.08377352     0.37400
N741        N  0.29339469  0.96467060  0.29798320    -0.43400
N742        N  0.03184745  0.94009617  0.23952514    -0.43900
N743        N  0.18620599  0.95718655  0.05724473    -0.41200
N744        N  0.02256160  0.81825383  0.23799149    -0.42700
H745        H  0.01342272  0.82892038  0.13555019     0.13500
H746        H  0.18666033  0.95621100  0.16004418     0.10000
H747        H  0.20781535  0.92697868  0.21906482     0.11100
H748        H  0.10574189  0.45070855  0.31963794     0.16900
C749        C  0.34964375  0.76807120  0.25449110    -0.01300
C750        C  0.31183606  0.75149420  0.22359531     0.07300
C751        C  0.26264608  0.72490164  0.23494461    -0.07300
C752        C  0.25127330  0.71818138  0.27513280     0.04700
C753        C  0.28912762  0.73758012  0.30487836    -0.14500
C754        C  0.33773634  0.75797619  0.29406900    -0.07900
C755        C  0.32291021  0.76701231  0.18111511     0.05600
C756        C  0.35553463  0.81621707  0.17510261    -0.09000
C757        C  0.37163668  0.83414727  0.13809415     0.00600
C758        C  0.35629051  0.80171858  0.10377042     0.00500
C759        C  0.32041621  0.75223262  0.10876388    -0.12500
C760        C  0.30174209  0.73574812  0.14663344     0.01000
C761        C  0.40471135  0.88677440  0.13768295     0.40300
C762        C  0.25895465  0.68818893  0.14884177     0.36900
C763        C  0.40029778  0.80369730  0.24912331     0.36600
C764        C  0.20062001  0.69548166  0.28591286     0.37400
N765        N  0.43094063  0.92897958  0.13867263    -0.43400
N766        N  0.22301589  0.65135679  0.15130913    -0.43900
N767        N  0.16041844  0.67742925  0.29571303    -0.41200
N768        N  0.44051658  0.83441544  0.24627009    -0.42700
H769        H  0.36673458  0.77386326  0.31725846     0.13500
H770        H  0.23273442  0.71363084  0.21312588     0.10000
H771        H  0.36882274  0.84168323  0.19982682     0.11100
H772        H  0.30718065  0.72593175  0.08385664     0.16900
C773        C  0.38862626  0.64157126  0.15216463    -0.01300
C774        C  0.41824609  0.63106676  0.17844918     0.07300
C775        C  0.44162278  0.60543915  0.16262613    -0.07300
C776        C  0.43467086  0.58988533  0.12229938     0.04700
C777        C  0.40712878  0.60315731  0.09603111    -0.14500
C778        C  0.38750535  0.63248298  0.11107907    -0.07900
C779        C  0.42486099  0.64561678  0.22227398     0.05600
C780        C  0.42418398  0.61200066  0.25003902    -0.09000
C781        C  0.43635832  0.62579567  0.29038418     0.00600
C782        C  0.45139586  0.67476067  0.30359319     0.00500
C783        C  0.44812408  0.70728330  0.27709235    -0.12500
C784        C  0.43418554  0.69302464  0.23703872     0.01000
C785        C  0.43263302  0.58904018  0.31779162     0.40300
C786        C  0.43124416  0.72849899  0.21179499     0.36900
C787        C  0.35158395  0.65155967  0.16772712     0.36600
C788        C  0.45336275  0.55757123  0.10882939     0.37400
N789        N  0.42861581  0.55930268  0.33985323    -0.43400
N790        N  0.92733450  0.75492127  0.19018515    -0.43900
N791        N  0.46797163  0.53147235  0.09776499    -0.41200
N792        N  0.32315318  0.65924746  0.18335096    -0.42700
H793        H  0.36268627  0.63907091  0.09199995     0.13500
H794        H  0.46416715  0.59613083  0.18197707     0.10000
H795        H  0.41469831  0.57492873  0.24025524     0.11100
H796        H  0.95845244  0.74463943  0.28756322     0.16900
C797        C  0.43543466  0.65869629  0.74601308    -0.01300
C798        C  0.43595365  0.61485436  0.75832600     0.07300
C799        C  0.44281706  0.58696648  0.72733666    -0.07300
C800        C  0.45544030  0.60537776  0.68880112     0.04700
C801        C  0.45652612  0.64998352  0.67936536    -0.14500
C802        C  0.44016994  0.67202753  0.70662912    -0.07900
C803        C  0.42846362  0.59841303  0.80168546     0.05600
C804        C  0.40303948  0.61491133  0.82675438    -0.09000
C805        C  0.39952540  0.60689809  0.86774599     0.00600
C806        C  0.41251422  0.57346849  0.88397506     0.00500
C807        C  0.43547786  0.55387709  0.85961069    -0.12500
C808        C  0.44531365  0.56722623  0.81961362     0.01000
C809        C  0.38196578  0.63244417  0.89368280     0.40300
C810        C  0.46989438  0.54495007  0.79840645     0.36900
C811        C  0.44149117  0.69888706  0.77120466     0.36600
C812        C  0.46734325  0.57850994  0.65942057     0.37400
N813        N  0.37050974  0.65354204  0.91622149    -0.43400
N814        N  0.98796156  0.52411259  0.78259283    -0.43900
N815        N  0.47654374  0.55701976  0.63549079    -0.41200
N816        N  0.44889326  0.73633422  0.78516845    -0.42700
H817        H  0.44033383  0.70607196  0.69861581     0.13500
H818        H  0.43870133  0.55099604  0.73238908     0.10000
H819        H  0.38543286  0.63415346  0.81436145     0.11100
H820        H  0.44411140  0.52647731  0.87152438     0.16900
C821        C  0.24765361  0.80314054  0.73871694    -0.01300
C822        C  0.27589975  0.84284752  0.76650464     0.07300
C823        C  0.31734502  0.88467457  0.75295996    -0.07300
C824        C  0.33137809  0.88607550  0.71350773     0.04700
C825        C  0.30463548  0.84466635  0.68758842    -0.14500
C826        C  0.26277986  0.80437443  0.70039648    -0.07900
C827        C  0.26335345  0.84279873  0.80906849     0.05600
C828        C  0.30025777  0.85537716  0.83889481    -0.09000
C829        C  0.29170196  0.86106788  0.87879248     0.00600
C830        C  0.24556432  0.85495385  0.89000603     0.00500
C831        C  0.20820426  0.84133963  0.86012146    -0.12500
C832        C  0.21752482  0.83715898  0.81990342     0.01000
C833        C  0.33326964  0.88459903  0.90672528     0.40300
C834        C  0.18266625  0.83357244  0.78924097     0.36900
C835        C  0.20558673  0.75739778  0.74719700     0.36600
C836        C  0.37058468  0.93101638  0.69954879     0.37400
N837        N  0.36424300  0.90617627  0.93067473    -0.43400
N838        N  0.15724129  0.83077322  0.76251435    -0.43900
N839        N  0.40182795  0.96717273  0.68802801    -0.41200
N840        N  0.17398284  0.71742581  0.74907674    -0.42700
H841        H  0.24240823  0.77238680  0.68016755     0.13500
H842        H  0.33814493  0.91661544  0.77296257     0.10000
H843        H  0.33709635  0.86439630  0.83063505     0.11100
H844        H  0.17443092  0.84099969  0.86738676     0.16900
C845        C  0.32966857  0.87380727  0.25969663    -0.01300
C846        C  0.28653083  0.86449660  0.23623631     0.07300
C847        C  0.24216427  0.84475092  0.25648795    -0.07300
C848        C  0.23863882  0.82708373  0.29490899     0.04700
C849        C  0.27905848  0.82611665  0.31351063    -0.14500
C850        C  0.32495741  0.85294296  0.29701551    -0.07900
C851        C  0.28391033  0.87044338  0.19135533     0.05600
C852        C  0.24171993  0.83584753  0.16807402    -0.09000
C853        C  0.23480502  0.84262533  0.12736196     0.00600
C854        C  0.27359479  0.87944586  0.10686829     0.00500
C855        C  0.31756933  0.91003301  0.12919943    -0.12500
C856        C  0.32020063  0.90996468  0.17082048     0.01000
C857        C  0.18603113  0.81658360  0.10900658     0.40300
C858        C  0.35514457  0.95573846  0.19066477     0.36900
C859        C  0.37968615  0.90446182  0.24858243     0.36600
C860        C  0.19478387  0.81347038  0.31617617     0.37400
N861        N  0.14673491  0.79689295  0.09443657    -0.43400
N862        N  0.38331739  0.99326716  0.20559498    -0.43900
N863        N  0.16165432  0.80510592  0.33546020    -0.41200
N864        N  0.42058867  0.92848507  0.24116043    -0.42700
H865        H  0.35738050  0.85669843  0.31319020     0.13500
H866        H  0.21008322  0.84351685  0.24240101     0.10000
H867        H  0.21216966  0.80531301  0.18226994     0.11100
H868        H  0.34722261  0.94037583  0.11467608     0.16900
C869        C  0.04877195  0.69610845  0.15647034    -0.01300
C870        C  0.08560247  0.70104035  0.18447487     0.07300
C871        C  0.12769923  0.70111445  0.16974287    -0.07300
C872        C  0.12867178  0.69017893  0.12901610     0.04700
C873        C  0.08494107  0.67051541  0.10529726    -0.14500
C874        C  0.04636205  0.67670876  0.11838102    -0.07900
C875        C  0.08123478  0.70918824  0.22782505     0.05600
C876        C  0.06600857  0.66974901  0.25322401    -0.09000
C877        C  0.05663414  0.67516661  0.29316210     0.00600
C878        C  0.05679163  0.71878445  0.30713873     0.00500
C879        C  0.07431092  0.75918263  0.28199214    -0.12500
C880        C  0.08914015  0.75497261  0.24346114     0.01000
C881        C  0.54842919  0.63628690  0.31983786     0.40300
C882        C  0.11462323  0.79713266  0.21971942     0.36900
C883        C  0.02242858  0.72278174  0.16074514     0.36600
C884        C  0.17444723  0.70627482  0.10962256     0.37400
N885        N  0.54236816  0.60529150  0.34123831    -0.43400
N886        N  0.13669902  0.82757047  0.19791604    -0.43900
N887        N  0.20925319  0.72020303  0.09115784    -0.41200
N888        N  0.00348006  0.74679465  0.15845276    -0.42700
H889        H  0.01627188  0.67012541  0.09769471     0.13500
H890        H  0.15996220  0.71234488  0.18912938     0.10000
H891        H  0.06125434  0.63470226  0.24171222     0.11100
H892        H  0.07659857  0.79371490  0.29246957     0.16900
C893        C  0.04453755  0.70753675  0.85324020    -0.01300
C894        C  0.07767529  0.72095691  0.82216647     0.07300
C895        C  0.12529332  0.72927656  0.83138714    -0.07300
C896        C  0.13886719  0.72094058  0.86872916     0.04700
C897        C  0.10316848  0.69995882  0.89726110    -0.14500
C898        C  0.05669671  0.69513046  0.88980460    -0.07900
C899        C  0.06414248  0.72121966  0.77937760     0.05600
C900        C  0.05576651  0.75887971  0.76494727    -0.09000
C901        C  0.05053624  0.76330634  0.72375380     0.00600
C902        C  0.05402973  0.72976662  0.69630156     0.00500
C903        C  0.06397916  0.69332769  0.71090451    -0.12500
C904        C  0.06706472  0.68768504  0.75170612     0.01000
C905        C  0.03953132  0.80112348  0.71046943     0.40300
C906        C  0.07333166  0.64677429  0.76438394     0.36900
C907        C  0.00091474  0.71168317  0.85204611     0.36600
C908        C  0.18823349  0.72926023  0.87606631     0.37400
N909        N  0.03069458  0.83152667  0.70001921    -0.43400
N910        N  0.07987835  0.61468869  0.77400454    -0.43900
N911        N  0.22684622  0.73383164  0.88307683    -0.41200
N912        N  0.96641463  0.71581620  0.85687120    -0.42700
H913        H  0.02984421  0.68177029  0.91255169     0.13500
H914        H  0.15193422  0.74130596  0.80916267     0.10000
H915        H  0.05383126  0.78510738  0.78578527     0.11100
H916        H  0.06535217  0.66656112  0.69022207     0.16900
C917        C  0.23212916  0.58555286  0.76058724    -0.01300
C918        C  0.26156222  0.57250301  0.78503368     0.07300
C919        C  0.29039806  0.55455064  0.76668898    -0.07300
C920        C  0.28883076  0.54841620  0.72500837     0.04700
C921        C  0.25545388  0.55639862  0.70115281    -0.14500
C922        C  0.22815456  0.57613979  0.71926833    -0.07900
C923        C  0.26177166  0.57777187  0.82934770     0.05600
C924        C  0.23585368  0.53607902  0.85205575    -0.09000
C925        C  0.22815895  0.54186628  0.89248067     0.00600
C926        C  0.24087280  0.58889922  0.90880860     0.00500
C927        C  0.26969277  0.63009847  0.88728093    -0.12500
C928        C  0.28242327  0.62456982  0.84899722     0.01000
C929        C  0.20782272  0.50038453  0.91753280     0.40300
C930        C  0.32427429  0.66574570  0.83492367     0.36900
C931        C  0.20663900  0.60983782  0.77720695     0.36600
C932        C  0.31946505  0.53118569  0.70664564     0.37400
N933        N  0.19360974  0.46888712  0.93958560    -0.43400
N934        N  0.36197542  0.69823740  0.82822300    -0.43900
N935        N  0.34266340  0.51701330  0.69000438    -0.41200
N936        N  0.18702281  0.63018371  0.79066840    -0.42700
H937        H  0.20263605  0.58281846  0.70124710     0.13500
H938        H  0.31405379  0.54541849  0.78470506     0.10000
H939        H  0.22121831  0.49950654  0.83818972     0.11100
H940        H  0.28208294  0.66679834  0.90046989     0.16900
C941        C  0.22564646  0.55634214  0.17229845    -0.01300
C942        C  0.18988243  0.55433590  0.19862106     0.07300
C943        C  0.14164356  0.53150207  0.18270417    -0.07300
C944        C  0.13115649  0.52482557  0.14208189     0.04700
C945        C  0.17004769  0.54373747  0.11491424    -0.14500
C946        C  0.21735517  0.55656975  0.13103551    -0.07900
C947        C  0.20064508  0.56930543  0.24243903     0.05600
C948        C  0.24872089  0.58762792  0.25924176    -0.09000
C949        C  0.25548770  0.57990382  0.29886111     0.00600
C950        C  0.21441439  0.55729294  0.32213070     0.00500
C951        C  0.17062386  0.55570624  0.30943439    -0.12500
C952        C  0.16378998  0.56326632  0.26968924     0.01000
C953        C  0.30354010  0.59167504  0.31470520     0.40300
C954        C  0.11960477  0.56555255  0.25921019     0.36900
C955        C  0.26438193  0.54629275  0.18597200     0.36600
C956        C  0.07936769  0.49990474  0.13082677     0.37400
N957        N  0.34122417  0.60076339  0.32923228    -0.43400
N958        N  0.08353771  0.56641348  0.25119716    -0.43900
N959        N  0.03737493  0.48159373  0.12435824    -0.41200
N960        N  0.29413100  0.53695351  0.19805108    -0.42700
H961        H  0.24850973  0.56820181  0.11287298     0.13500
H962        H  0.11082636  0.51608381  0.20141726     0.10000
H963        H  0.28079066  0.60487988  0.24172536     0.11100
H964        H  0.14024852  0.04313022  0.32949070     0.16900
O965        O  0.93644943  0.23494192  0.53283930    -0.81100
C966        C  0.77254673  0.06116433  0.45498638     0.98200
O967        O  0.81922578  0.08014489  0.45602929    -0.70200
O968        O  0.91742866  0.15766563  0.46033220    -0.73800
Al969      Al  0.86467059  0.12209565  0.49817498     1.49000
C970        C  0.93898835  0.20060959  0.44611967     0.93500
O971        O  0.83915309  0.24393837  0.45988111    -0.80000
O972        O  0.77980326  0.19905329  0.54014043    -0.73600
Al973      Al  0.88350405  0.23268781  0.49630238     1.90100
O974        O  0.76647585  0.17760945  0.46090958    -0.72700
O975        O  0.77037195  0.10495671  0.55232443    -0.72500
O976        O  0.75310615  0.08331134  0.47346516    -0.78200
O977        O  0.81860928  0.07436458  0.53658911    -0.76400
O978        O  0.84113828  0.16632263  0.50004280    -1.12500
O979        O  0.91347976  0.15616691  0.53920148    -0.71700
C980        C  0.94443997  0.20142604  0.54714005     0.99000
C981        C  0.79336220  0.22122478  0.44938046     0.95400
Al982      Al  0.77496608  0.14367454  0.50610510     1.55600
O983        O  0.92077729  0.22896847  0.45238174    -0.76300
C984        C  0.78232170  0.07093016  0.55595933     0.99600
C985        C  0.81478596  0.24189277  0.54941845     0.94400
O986        O  0.85765069  0.25327075  0.53858038    -0.81700
N987        N  0.65688840  0.13157573  0.94872267    -0.35900
N988        N  0.59690729  0.15398161  0.99826473    -0.56500
N989        N  0.61031028  0.09017462  0.08644562    -0.35900
N990        N  0.68303983  0.08061203  0.00617534    -0.56500
C991        C  0.62762855  0.14059854  0.92353843     0.27700
C992        C  0.67473613  0.10677814  0.92708698     0.27700
C993        C  0.57824959  0.09859402  0.06477040     0.27700
C994        C  0.61867947  0.05804014  0.06474676     0.27700
C995        C  0.60163475  0.18479650  0.96987320     0.36300
C996        C  0.58381502  0.16908536  0.03105895     0.36300
C997        C  0.71689496  0.08636837  0.98002821     0.36300
C998        C  0.69260293  0.06352482  0.03982215     0.36300
C999        C  0.62463207  0.11871632  0.88640848    -0.21200
C1000       C  0.65576361  0.09905769  0.88846761    -0.21200
C1001       C  0.56010761  0.06522774  0.03219075    -0.21200
C1002       C  0.58750554  0.04124174  0.03120882    -0.21200
C1003       C  0.59162821  0.22137024  0.98436046    -0.22300
C1004       C  0.58110801  0.21178815  0.02406701    -0.22300
C1005       C  0.75059871  0.07440282  0.99700195    -0.22300
C1006       C  0.73549958  0.06028465  0.03515850    -0.22300
C1007       C  0.61161684  0.17573518  0.93133120    -0.17600
C1008       C  0.71175730  0.09556908  0.94012501    -0.17800
C1009       C  0.66021318  0.05185500  0.07203550    -0.17600
C1010       C  0.57878126  0.14454211  0.06648859    -0.17600
H1011       H  0.60541255  0.12048834  0.85975286     0.15300
H1012       H  0.66575646  0.08325044  0.86393573     0.15300
H1013       H  0.53481149  0.06347369  0.00863742     0.15300
H1014       H  0.58706669  0.01691819  0.00729525     0.15300
H1015       H  0.59205603  0.25147462  0.96831309     0.13600
H1016       H  0.57156362  0.23285013  0.04473861     0.13600
H1017       H  0.78116509  0.07350881  0.98287831     0.13600
H1018       H  0.75301967  0.04623002  0.05485949     0.13600
H1019       H  0.67004057  0.14793191  0.97703201     0.26800
H1020       H  0.63164790  0.11046746  0.11135545     0.26800
N1021       N  0.81187610  0.47051811  0.93717237    -0.35900
N1022       N  0.87437097  0.04919630  0.99025969    -0.56500
N1023       N  0.81676817  0.48351296  0.04895481    -0.35900
N1024       N  0.75219991  0.40033214  0.99714653    -0.56500
C1025       C  0.83765323  0.00720393  0.91205018     0.27700
C1026       C  0.77013316  0.43692111  0.91727232     0.27700
C1027       C  0.83533837  0.02807311  0.06835483     0.27700
C1028       C  0.78085050  0.45044896  0.07097622     0.27700
C1029       C  0.90341728  0.06504444  0.95892537     0.36300
C1030       C  0.90054254  0.07658270  0.02265557     0.36300
C1031       C  0.74417563  0.37020388  0.96492022     0.36300
C1032       C  0.75403477  0.37634013  0.02981786     0.36300
C1033       C  0.81110581  0.99769802  0.87633042    -0.21200
C1034       C  0.76825742  0.45421707  0.87989699    -0.21200
C1035       C  0.80928664  0.02288672  0.10228153    -0.21200
C1036       C  0.77510363  0.47384175  0.10421772    -0.21200
C1037       C  0.94880317  0.10408893  0.97130466    -0.22300
C1038       C  0.94690471  0.11163062  0.01192895    -0.22300
C1039       C  0.73813892  0.32505435  0.97721110    -0.22300
C1040       C  0.74470435  0.32909501  0.01854170    -0.22300
C1041       C  0.88613957  0.04645084  0.91953516    -0.17600
C1042       C  0.74639732  0.38596307  0.92525049    -0.17600
C1043       C  0.76610492  0.39989376  0.06838435    -0.17600
C1044       C  0.88072960  0.06977076  0.06075258    -0.17600
H1045       H  0.82179188  0.01841736  0.84969112     0.15300
H1046       H  0.74113262  0.43548152  0.85597716     0.15300
H1047       H  0.81648420  0.05023803  0.12525398     0.15300
H1048       H  0.75272916  0.45656712  0.12915456     0.15300
H1049       H  0.97967738  0.12483524  0.95313553     0.13600
H1050       H  0.97599124  0.13936790  0.03119129     0.13600
H1051       H  0.73196747  0.29352010  0.95839244     0.13600
H1052       H  0.74423198  0.30130188  0.03771999     0.13600
H1053       H  0.82691688  0.46383340  0.96272864     0.26800
H1054       H  0.83486580  0.47409802  0.02757673     0.26800
N1055       N  0.96589410  0.34152456  0.07876117    -0.35900
N1056       N  0.55746377  0.39968662  0.99985894    -0.56500
N1057       N  0.98033758  0.38076784  0.94790266    -0.35900
N1058       N  0.88981853  0.33397873  0.99586234    -0.56500
C1059       C  0.50948719  0.37997642  0.07022588     0.27700
C1060       C  0.93149248  0.35446985  0.06870653     0.27700
C1061       C  0.51964913  0.41128469  0.92698247     0.27700
C1062       C  0.93943942  0.37482544  0.92821161     0.27700
C1063       C  0.57379698  0.38308076  0.02996874     0.36300
C1064       C  0.57967824  0.39859906  0.96656892     0.36300
C1065       C  0.86189099  0.30750978  0.02532105     0.36300
C1066       C  0.87136620  0.30944730  0.96119604     0.36300
C1067       C  0.50231677  0.41721588  0.05475517    -0.21200
C1068       C  0.95294978  0.40133117  0.05386486    -0.21200
C1069       C  0.50278796  0.42911725  0.89594992    -0.21200
C1070       C  0.95259898  0.40604962  0.89676339    -0.21200
C1071       C  0.60819598  0.37061049  0.01582170    -0.22300
C1072       C  0.61326286  0.38214188  0.97578832    -0.22300
C1073       C  0.82128740  0.26567768  0.00847769    -0.22300
C1074       C  0.82809796  0.26645287  0.96745447    -0.22300
C1075       C  0.55327898  0.37712713  0.06807876    -0.17600
C1076       C  0.88115756  0.32054412  0.06519383    -0.17600
C1077       C  0.89658538  0.32834918  0.92623731    -0.17600
C1078       C  0.56589596  0.41139516  0.92978674    -0.17600
H1079       H  0.52977068  0.45102245  0.04325810     0.15300
H1080       H  0.93445528  0.42049425  0.04172307     0.15300
H1081       H  0.52200023  0.45107314  0.87151756     0.15300
H1082       H  0.92828365  0.40594836  0.87306675     0.15300
H1083       H  0.62715888  0.35461357  0.03223951     0.13600
H1084       H  0.63777249  0.37724678  0.95627635     0.13600
H1085       H  0.79146368  0.23633272  0.02320158     0.13600
H1086       H  0.80436157  0.23869446  0.94528365     0.13600
H1087       H  0.95892303  0.30601282  0.08574232     0.26800
H1088       H  0.97924904  0.35526576  0.96816057     0.26800
C1089       C  0.53171294  0.23931225  0.41614700     0.03000
C1090       C  0.97696620  0.21240091  0.41411321     0.02900
C1091       C  0.95315647  0.19236983  0.37663680    -0.17600
C1092       C  0.97871372  0.19536031  0.34229020     0.03000
C1093       C  0.53036876  0.21873104  0.34407985     0.02900
C1094       C  0.55576139  0.23986425  0.38060178    -0.17600
H1095       H  0.59545928  0.25682086  0.38159199     0.05000
H1096       H  0.91327416  0.17374437  0.37396458     0.05000
C1097       C  0.77447661  0.24195786  0.41663988     0.03000
C1098       C  0.75796753  0.27937982  0.41915737     0.02900
C1099       C  0.76128488  0.30636760  0.38510279    -0.17600
C1100       C  0.77354023  0.29468485  0.34839064     0.03000
C1101       C  0.78032871  0.25279618  0.34455908     0.02900
C1102       C  0.78257798  0.22836632  0.37838872    -0.17600
H1103       H  0.79281408  0.19948188  0.37491019     0.05000
H1104       H  0.75308955  0.33680127  0.38685168     0.05000
C1105       C  0.53630449  0.24741777  0.58540338     0.03000
C1106       C  0.98322248  0.21158136  0.58009703     0.02900
C1107       C  0.96098094  0.17861707  0.61099940    -0.17600
C1108       C  0.98523038  0.18138234  0.64669258     0.03000
C1109       C  0.53236435  0.22191431  0.65500110     0.02900
C1110       C  0.55796532  0.25292618  0.62418327    -0.17600
H1111       H  0.59605500  0.28070673  0.63022190     0.05000
H1112       H  0.92238370  0.15079221  0.60849313     0.05000
C1113       C  0.77926538  0.29997168  0.58254662     0.03000
C1114       C  0.81087846  0.27654751  0.58010270     0.02900
C1115       C  0.84759957  0.28908295  0.61056314    -0.17600
C1116       C  0.85191346  0.31805371  0.64421820     0.03000
C1117       C  0.81958606  0.33763109  0.64778182     0.02900
C1118       C  0.78625208  0.33063754  0.61645006    -0.17600
H1119       H  0.76192908  0.34649026  0.62042444     0.05000
H1120       H  0.87131321  0.27217449  0.61020395     0.05000
C1121       C  0.75832801  0.03287499  0.58850090     0.03000
C1122       C  0.72142325  0.47926921  0.58550716     0.02900
C1123       C  0.69277012  0.45856364  0.61917564    -0.17600
C1124       C  0.70088649  0.48464344  0.65553052     0.03000
C1125       C  0.74056852  0.03287610  0.66011946     0.02900
C1126       C  0.76765841  0.05648366  0.62696881    -0.17600
H1127       H  0.79622489  0.09469690  0.63120813     0.05000
H1128       H  0.66437661  0.42008921  0.61790913     0.05000
C1129       C  0.74195493  0.02449787  0.42228890     0.03000
C1130       C  0.71729659  0.47003550  0.41867322     0.02900
C1131       C  0.69614955  0.44753476  0.38104266    -0.17600
C1132       C  0.69554851  0.47528244  0.34906921     0.03000
C1133       C  0.71441616  0.02696042  0.35478618     0.02900
C1134       C  0.73781048  0.05043708  0.39033456    -0.17600
H1135       H  0.75412781  0.09053027  0.39259204     0.05000
H1136       H  0.67899550  0.40765555  0.37665256     0.05000
O1137       O  0.73659021  0.41718708  0.45827927    -0.81100
C1138       C  0.57497891  0.27273768  0.55403724     0.98200
O1139       O  0.58210554  0.31291503  0.53906155    -0.70200
O1140       O  0.66320320  0.40883511  0.54378862    -0.73800
Al1141     Al  0.62857752  0.35868820  0.50120947     1.49000
C1142       C  0.70856413  0.43908023  0.55245637     0.93500
O1143       O  0.75793804  0.34953643  0.54269408    -0.80000
O1144       O  0.69006085  0.26352254  0.46154612    -0.73600
Al1145     Al  0.73933511  0.37832719  0.50108177     1.90100
O1146       O  0.70257914  0.27126100  0.54154956    -0.72700
O1147       O  0.59363469  0.24779816  0.46605235    -0.72500
O1148       O  0.60552138  0.25708443  0.54711449    -0.78200
O1149       O  0.58487850  0.31331658  0.45796811    -0.76400
O1150       O  0.67272513  0.33484925  0.50207563    -1.12500
O1151       O  0.66345896  0.41025504  0.46356675    -0.71700
C1152       C  0.70648540  0.43264005  0.45024773     0.99000
C1153       C  0.74547328  0.30569010  0.55209079     0.95400
Al1154     Al  0.65031245  0.26768687  0.50399763     1.55600
O1155       O  0.74102471  0.42964083  0.53855559    -0.76300
C1156       C  0.56951672  0.26737848  0.45055777     0.99600
C1157       C  0.73372196  0.29305825  0.45207352     0.94400
O1158       O  0.75345314  0.33808208  0.46418897    -0.81700
C1159       C  0.84670729  0.28138083  0.82327329    -0.01300
C1160       C  0.89160306  0.29602298  0.80428244     0.07300
C1161       C  0.93370763  0.30751570  0.82838781    -0.07300
C1162       C  0.92937070  0.30202258  0.86952017     0.04700
C1163       C  0.88815315  0.29995912  0.88792166    -0.14500
C1164       C  0.84611524  0.28696932  0.86457858    -0.07900
C1165       C  0.89411396  0.29887380  0.76007772     0.05600
C1166       C  0.92081726  0.34539296  0.74350946    -0.09000
C1167       C  0.91404275  0.35134714  0.70290410     0.00600
C1168       C  0.87657423  0.31178965  0.68013858     0.00500
C1169       C  0.85543206  0.26472665  0.69497047    -0.12500
C1170       C  0.86558447  0.25770914  0.73378773     0.01000
C1171       C  0.94642324  0.39660526  0.68438908     0.40300
C1172       C  0.84732625  0.20735576  0.74363102     0.36900
C1173       C  0.80060563  0.25333824  0.80219533     0.36600
C1174       C  0.96650065  0.29895680  0.89387402     0.37400
N1175       N  0.97285977  0.43223183  0.66882123    -0.43400
N1176       N  0.83335050  0.16574762  0.74731639    -0.43900
N1177       N  0.99283891  0.29406177  0.91596019    -0.41200
N1178       N  0.76400621  0.22636915  0.78582797    -0.42700
H1179       H  0.81371786  0.28266460  0.87860826     0.13500
H1180       H  0.96867217  0.31771646  0.81525179     0.10000
H1181       H  0.94513724  0.37697778  0.76254642     0.11100
H1182       H  0.82901673  0.23328347  0.67650729     0.16900
C1183       C  0.60883709  0.45169182  0.73709157    -0.01300
C1184       C  0.63337372  0.44049624  0.76807419     0.07300
C1185       C  0.67417929  0.43484469  0.75823423    -0.07300
C1186       C  0.69055628  0.44069153  0.71937335     0.04700
C1187       C  0.67143928  0.45979644  0.69068357    -0.14500
C1188       C  0.62937225  0.46364763  0.69943686    -0.07900
C1189       C  0.61826260  0.43408199  0.81067690     0.05600
C1190       C  0.61253732  0.39207344  0.83035135    -0.09000
C1191       C  0.59978163  0.38505961  0.87037042     0.00600
C1192       C  0.59486859  0.42172510  0.89264266     0.00500
C1193       C  0.60697153  0.46620013  0.87430573    -0.12500
C1194       C  0.61424155  0.47090408  0.83342779     0.01000
C1195       C  0.59266536  0.34017970  0.88757969     0.40300
C1196       C  0.61032647  0.51048293  0.81540890     0.36900
C1197       C  0.56293654  0.45144947  0.74299171     0.36600
C1198       C  0.72615956  0.92582899  0.70825198     0.37400
N1199       N  0.58866368  0.30486718  0.90189873    -0.43400
N1200       N  0.60359365  0.04038971  0.80145249    -0.43900
N1201       N  0.75352493  0.91306575  0.69770085    -0.41200
N1202       N  0.52689531  0.45268894  0.74852320    -0.42700
H1203       H  0.61316744  0.47686853  0.67716042     0.13500
H1204       H  0.69355812  0.42601868  0.78107431     0.10000
H1205       H  0.61615322  0.36359461  0.81398561     0.11100
H1206       H  0.60421537  0.49511241  0.89113497     0.16900
C1207       C  0.57044932  0.37007543  0.17920812    -0.01300
C1208       C  0.61861930  0.40892644  0.18718062     0.07300
C1209       C  0.64868119  0.42862861  0.15477824    -0.07300
C1210       C  0.62971567  0.41497098  0.11539125     0.04700
C1211       C  0.57951335  0.38038211  0.10734234    -0.14500
C1212       C  0.55123553  0.35698877  0.14011563    -0.07900
C1213       C  0.63859447  0.42589479  0.22919546     0.05600
C1214       C  0.68532616  0.43221844  0.24090669    -0.09000
C1215       C  0.70370054  0.44582526  0.28038514     0.00600
C1216       C  0.67436802  0.45114890  0.30938905     0.00500
C1217       C  0.62742722  0.44350006  0.29812545    -0.12500
C1218       C  0.61072245  0.43408653  0.25832250     0.01000
C1219       C  0.75345937  0.45624023  0.29021205     0.40300
C1220       C  0.56673664  0.43709236  0.24798229     0.36900
C1221       C  0.54210634  0.34047680  0.21096693     0.36600
C1222       C  0.66182900  0.43931025  0.08395321     0.37400
N1223       N  0.79344639  0.46490685  0.29809158    -0.43400
N1224       N  0.53173537  0.43990348  0.23969055    -0.43900
N1225       N  0.68628412  0.45715103  0.05744595    -0.41200
N1226       N  0.52261906  0.31809344  0.23808847    -0.42700
H1227       H  0.51331313  0.32910893  0.13567756     0.13500
H1228       H  0.68667018  0.45605920  0.16021556     0.10000
H1229       H  0.70777448  0.42691101  0.21920265     0.11100
H1230       H  0.60587344  0.95064506  0.31969949     0.16900
C1231       C  0.84965323  0.26814608  0.25453114    -0.01300
C1232       C  0.81187121  0.25157122  0.22360933     0.07300
C1233       C  0.76267163  0.22495828  0.23493811    -0.07300
C1234       C  0.75126220  0.21817824  0.27511522     0.04700
C1235       C  0.78908302  0.23757421  0.30488470    -0.14500
C1236       C  0.83770781  0.25801299  0.29410306    -0.07900
C1237       C  0.82296354  0.26704962  0.18111302     0.05600
C1238       C  0.85565350  0.31622996  0.17505632    -0.09000
C1239       C  0.87169225  0.33410947  0.13801824     0.00600
C1240       C  0.85630495  0.30163717  0.10371971     0.00500
C1241       C  0.82038739  0.25218039  0.10876113    -0.12500
C1242       C  0.80172017  0.23576536  0.14664574     0.01000
C1243       C  0.90469246  0.38674675  0.13753778     0.40300
C1244       C  0.75890364  0.18822789  0.14888230     0.36900
C1245       C  0.90031750  0.30377608  0.24920230     0.36600
C1246       C  0.70059584  0.19540836  0.28586543     0.37400
N1247       N  0.93084428  0.42896625  0.13847281    -0.43400
N1248       N  0.72295766  0.15140445  0.15136597    -0.43900
N1249       N  0.66038579  0.17729766  0.29564920    -0.41200
N1250       N  0.94055095  0.33448149  0.24638887    -0.42700
H1251       H  0.86668270  0.27389406  0.31731112     0.13500
H1252       H  0.73276995  0.21370833  0.21311486     0.10000
H1253       H  0.86902011  0.34173100  0.19975585     0.11100
H1254       H  0.80710628  0.22584151  0.08388385     0.16900
C1255       C  0.88873898  0.14161742  0.15206145    -0.01300
C1256       C  0.91830233  0.13112270  0.17841902     0.07300
C1257       C  0.94168615  0.10546235  0.16266675    -0.07300
C1258       C  0.93477010  0.08984323  0.12235358     0.04700
C1259       C  0.90726453  0.10308163  0.09601733    -0.14500
C1260       C  0.88764609  0.13244715  0.11098774    -0.07900
C1261       C  0.92483255  0.14567294  0.22225204     0.05600
C1262       C  0.92410052  0.11204502  0.25003197    -0.09000
C1263       C  0.93628474  0.12584966  0.29037830     0.00600
C1264       C  0.95141821  0.17484117  0.30357558     0.00500
C1265       C  0.94815874  0.20736603  0.27706867    -0.12500
C1266       C  0.93415950  0.19308523  0.23702072     0.01000
C1267       C  0.93242228  0.08906513  0.31780677     0.40300
C1268       C  0.93115530  0.22854390  0.21179746     0.36900
C1269       C  0.85168768  0.15163978  0.16754077     0.36600
C1270       C  0.95344371  0.05748283  0.10897030     0.37400
N1271       N  0.92828500  0.05930618  0.33988830    -0.43400
N1272       N  0.42744638  0.25495141  0.18999291    -0.43900
N1273       N  0.96802774  0.03133922  0.09796826    -0.41200
N1274       N  0.82323037  0.15933284  0.18311058    -0.42700
H1275       H  0.86285916  0.13902237  0.09185772     0.13500
H1276       H  0.96419423  0.09616223  0.18206768     0.10000
H1277       H  0.91455951  0.07495074  0.24025713     0.11100
H1278       H  0.45851802  0.24476186  0.28740406     0.16900
C1279       C  0.93528261  0.15813216  0.74581203    -0.01300
C1280       C  0.93606286  0.11445434  0.75824013     0.07300
C1281       C  0.94319608  0.08665190  0.72733356    -0.07300
C1282       C  0.95582021  0.10502578  0.68878807     0.04700
C1283       C  0.95654474  0.14943176  0.67922188    -0.14500
C1284       C  0.93989899  0.17131196  0.70638749    -0.07900
C1285       C  0.92859691  0.09812213  0.80163625     0.05600
C1286       C  0.90313282  0.11464586  0.82664743    -0.09000
C1287       C  0.89962654  0.10673527  0.86765436     0.00600
C1288       C  0.91265039  0.07337326  0.88396484     0.00500
C1289       C  0.93565701  0.05376771  0.85967750    -0.12500
C1290       C  0.94548125  0.06700683  0.81966191     0.01000
C1291       C  0.88196001  0.13224914  0.89351773     0.40300
C1292       C  0.97004833  0.04464032  0.79855979     0.36900
C1293       C  0.94135228  0.19840992  0.77091156     0.36600
C1294       C  0.96821976  0.07838693  0.65956759     0.37400
N1295       N  0.87040860  0.15330773  0.91601393    -0.43400
N1296       N  0.48763988  0.02425009  0.78216187    -0.43900
N1297       N  0.97785760  0.05708694  0.63578512    -0.41200
N1298       N  0.94876208  0.23590394  0.78478639    -0.42700
H1299       H  0.93984411  0.20522770  0.69829088     0.13500
H1300       H  0.93934106  0.05080156  0.73245187     0.10000
H1301       H  0.88545560  0.13380213  0.81420538     0.11100
H1302       H  0.94431227  0.02641585  0.87166525     0.16900
C1303       C  0.74770016  0.30322230  0.73869062    -0.01300
C1304       C  0.77598586  0.34294515  0.76645159     0.07300
C1305       C  0.81744600  0.38474174  0.75288514    -0.07300
C1306       C  0.83146262  0.38609282  0.71343445     0.04700
C1307       C  0.80469969  0.34465552  0.68755063    -0.14500
C1308       C  0.76282488  0.30439497  0.70037680    -0.07900
C1309       C  0.76347725  0.34293428  0.80901678     0.05600
C1310       C  0.80039725  0.35547092  0.83882250    -0.09000
C1311       C  0.79189888  0.36124313  0.87871939     0.00600
C1312       C  0.74578691  0.35518100  0.88995761     0.00500
C1313       C  0.70840622  0.34159058  0.86009515    -0.12500
C1314       C  0.71767728  0.33735796  0.81987340     0.01000
C1315       C  0.83350077  0.38479423  0.90661757     0.40300
C1316       C  0.68277461  0.33372649  0.78923164     0.36900
C1317       C  0.70555879  0.25754443  0.74719887     0.36600
C1318       C  0.87067999  0.43100400  0.69944028     0.37400
N1319       N  0.86450459  0.40639911  0.93053848    -0.43400
N1320       N  0.65727405  0.33084278  0.76253423    -0.43900
N1321       N  0.90192777  0.46713517  0.68788812    -0.41200
N1322       N  0.67385406  0.21763132  0.74912470    -0.42700
H1323       H  0.74242722  0.27239340  0.68016713     0.13500
H1324       H  0.83826967  0.41669552  0.77287012     0.10000
H1325       H  0.83720656  0.36439682  0.83054408     0.11100
H1326       H  0.67465092  0.34128389  0.86738241     0.16900
C1327       C  0.82930063  0.37353448  0.25969668    -0.01300
C1328       C  0.78617418  0.36425727  0.23624711     0.07300
C1329       C  0.74183314  0.34464311  0.25652766    -0.07300
C1330       C  0.73831638  0.32706666  0.29499000     0.04700
C1331       C  0.77869126  0.32593944  0.31353783    -0.14500
C1332       C  0.82458236  0.35269113  0.29701712    -0.07900
C1333       C  0.78359081  0.37020997  0.19136798     0.05600
C1334       C  0.74143929  0.33563258  0.16804251    -0.09000
C1335       C  0.73462815  0.34242652  0.12730631     0.00600
C1336       C  0.77347359  0.37927773  0.10686695     0.00500
C1337       C  0.81740799  0.40981411  0.12925841    -0.12500
C1338       C  0.81992930  0.40973338  0.17087689     0.01000
C1339       C  0.68591988  0.31630469  0.10884400     0.40300
C1340       C  0.85475374  0.45553145  0.19075726     0.36900
C1341       C  0.87931696  0.40420735  0.24859674     0.36600
C1342       C  0.69463881  0.31396602  0.31638997     0.37400
N1343       N  0.64667439  0.29651960  0.09418184    -0.43400
N1344       N  0.88281509  0.49307754  0.20572884    -0.43900
N1345       N  0.66167144  0.30611670  0.33572715    -0.41200
N1346       N  0.92021892  0.42826926  0.24118886    -0.42700
H1347       H  0.85700010  0.35642414  0.31318559     0.13500
H1348       H  0.70980419  0.34353029  0.24245587     0.10000
H1349       H  0.71185847  0.30510146  0.18221835     0.11100
H1350       H  0.84710621  0.44016492  0.11477976     0.16900
C1351       C  0.54864914  0.19593732  0.15646905    -0.01300
C1352       C  0.58544846  0.20078600  0.18447552     0.07300
C1353       C  0.62751090  0.20079666  0.16973114    -0.07300
C1354       C  0.62847021  0.18988784  0.12899579     0.04700
C1355       C  0.58474101  0.17027114  0.10527827    -0.14500
C1356       C  0.54620211  0.17652496  0.11837441    -0.07900
C1357       C  0.58113772  0.20900034  0.22783018     0.05600
C1358       C  0.56591282  0.16959740  0.25327136    -0.09000
C1359       C  0.55663327  0.17509886  0.29322275     0.00600
C1360       C  0.55685965  0.21875878  0.30717056     0.00500
C1361       C  0.57439430  0.25912056  0.28198922    -0.12500
C1362       C  0.58913047  0.25482828  0.24344029     0.01000
C1363       C  0.04819975  0.13615841  0.31976628     0.40300
C1364       C  0.61453371  0.29694119  0.21963260     0.36900
C1365       C  0.52250045  0.22281154  0.16070184     0.36600
C1366       C  0.67423794  0.20597395  0.10958986     0.37400
N1367       N  0.04200143  0.10505642  0.34109401    -0.43400
N1368       N  0.63651891  0.32735583  0.19778408    -0.43900
N1369       N  0.70902931  0.21988309  0.09110810    -0.41200
N1370       N  0.50375396  0.24700692  0.15836755    -0.42700
H1371       H  0.51614632  0.17002922  0.09768010     0.13500
H1372       H  0.65977177  0.21198536  0.18911126     0.10000
H1373       H  0.56107393  0.13451173  0.24178158     0.11100
H1374       H  0.57671130  0.29367605  0.29243593     0.16900
C1375       C  0.54435758  0.20760370  0.85336109    -0.01300
C1376       C  0.57746994  0.22112285  0.82225306     0.07300
C1377       C  0.62512539  0.22952358  0.83142077    -0.07300
C1378       C  0.63877817  0.22119873  0.86873663     0.04700
C1379       C  0.60313553  0.20015801  0.89730126    -0.14500
C1380       C  0.55661752  0.19522711  0.88989697    -0.07900
C1381       C  0.56391520  0.22139730  0.77947072     0.05600
C1382       C  0.55567573  0.25914698  0.76504885    -0.09000
C1383       C  0.55047011  0.26360800  0.72385593     0.00600
C1384       C  0.55388702  0.23003249  0.69639016     0.00500
C1385       C  0.56374436  0.19352698  0.71098398    -0.12500
C1386       C  0.56681967  0.18786033  0.75178475     0.01000
C1387       C  0.53953290  0.30147748  0.71059091     0.40300
C1388       C  0.57311831  0.14695780  0.76444589     0.36900
C1389       C  0.50064549  0.21159327  0.85227028     0.36600
C1390       C  0.68817684  0.22959778  0.87601091     0.37400
N1391       N  0.53073661  0.33191592  0.70016319    -0.43400
N1392       N  0.57970138  0.11488813  0.77405435    -0.43900
N1393       N  0.72683084  0.23425313  0.88296912    -0.41200
N1394       N  0.46608292  0.21557207  0.85724344    -0.42700
H1395       H  0.52980246  0.18180756  0.91267023     0.13500
H1396       H  0.65172496  0.24157376  0.80916018     0.10000
H1397       H  0.55381080  0.28540753  0.78589588     0.11100
H1398       H  0.56506717  0.16673991  0.69029276     0.16900
C1399       C  0.73210532  0.08544738  0.76050495    -0.01300
C1400       C  0.76148875  0.07238603  0.78500291     0.07300
C1401       C  0.79036308  0.05444228  0.76671903    -0.07300
C1402       C  0.78889162  0.04833104  0.72504475     0.04700
C1403       C  0.75556518  0.05632543  0.70113156    -0.14500
C1404       C  0.72822585  0.07605721  0.71918923    -0.07900
C1405       C  0.76169599  0.07772944  0.82930457     0.05600
C1406       C  0.73583684  0.03608995  0.85207631    -0.09000
C1407       C  0.72818707  0.04196428  0.89249530     0.00600
C1408       C  0.74088993  0.08903258  0.90874685     0.00500
C1409       C  0.76967929  0.13018206  0.88715398    -0.12500
C1410       C  0.78238043  0.12456115  0.84888407     0.01000
C1411       C  0.70793404  0.00053456  0.91760827     0.40300
C1412       C  0.82431391  0.16562682  0.83479237     0.36900
C1413       C  0.70659182  0.10974757  0.77705359     0.36600
C1414       C  0.81958688  0.03112543  0.70675925     0.37400
N1415       N  0.69378707  0.96906594  0.93968835    -0.43400
N1416       N  0.86207600  0.19800026  0.82806441    -0.43900
N1417       N  0.84286121  0.01697338  0.69021069    -0.41200
N1418       N  0.68695297  0.13011611  0.79043095    -0.42700
H1419       H  0.70274589  0.08274328  0.70112218     0.13500
H1420       H  0.81398996  0.04531572  0.78477730     0.10000
H1421       H  0.72122364  0.99949323  0.83826625     0.11100
H1422       H  0.78209253  0.16690991  0.90028676     0.16900
C1423       C  0.72576650  0.05643451  0.17216262    -0.01300
C1424       C  0.69000650  0.05435580  0.19851249     0.07300
C1425       C  0.64175429  0.03146154  0.18262704    -0.07300
C1426       C  0.63122953  0.02483913  0.14200946     0.04700
C1427       C  0.67009473  0.04379574  0.11481595    -0.14500
C1428       C  0.71743138  0.05667281  0.13090717    -0.07900
C1429       C  0.70078320  0.06931367  0.24232836     0.05600
C1430       C  0.74886592  0.08770022  0.25913315    -0.09000
C1431       C  0.75564348  0.08004799  0.29877300     0.00600
C1432       C  0.71456390  0.05731924  0.32202358     0.00500
C1433       C  0.67073606  0.05564380  0.30931077    -0.12500
C1434       C  0.66391840  0.06324114  0.26957181     0.01000
C1435       C  0.80374614  0.09216616  0.31470580     0.40300
C1436       C  0.61977451  0.06559783  0.25908137     0.36900
C1437       C  0.76454932  0.04644316  0.18580574     0.36600
C1438       C  0.57942812  0.99993783  0.13080578     0.37400
N1439       N  0.84147358  0.10158175  0.32932765    -0.43400
N1440       N  0.58375475  0.06653371  0.25103266    -0.43900
N1441       N  0.53742496  0.98165634  0.12440620    -0.41200
N1442       N  0.79433870  0.03714952  0.19786376    -0.42700
H1443       H  0.74857773  0.06834699  0.11272882     0.13500
H1444       H  0.61096192  0.01596434  0.20136780     0.10000
H1445       H  0.78093514  0.10500307  0.24161638     0.11100
H1446       H  0.64022323  0.54300839  0.32953776     0.16900
O1447       O  0.93638469  0.73484700  0.53297093    -0.81100
C1448       C  0.77258573  0.56102862  0.45503213     0.98200
O1449       O  0.81927009  0.58006171  0.45611041    -0.70200
O1450       O  0.91745165  0.65764302  0.46049426    -0.73800
Al1451     Al  0.86464060  0.62202509  0.49828919     1.49000
C1452       C  0.93899392  0.70058637  0.44627597     0.93500
O1453       O  0.83908757  0.74390334  0.46000645    -0.80000
O1454       O  0.77960486  0.69892542  0.54005122    -0.73600
Al1455     Al  0.88342353  0.73259694  0.49642966     1.90100
O1456       O  0.76646380  0.67747649  0.46080346    -0.72700
O1457       O  0.77021306  0.60481023  0.55231964    -0.72500
O1458       O  0.75308977  0.58315957  0.47345411    -0.78200
O1459       O  0.81854617  0.57429154  0.53667483    -0.76400
O1460       O  0.84106899  0.66622158  0.50010976    -1.12500
O1461       O  0.91338812  0.65607940  0.53935727    -0.71700
C1462       C  0.94437176  0.70133218  0.54728088     0.99000
C1463       C  0.79333476  0.72115655  0.44937751     0.95400
Al1464     Al  0.77487069  0.64353860  0.50606461     1.55600
O1465       O  0.92073044  0.72891299  0.45250625    -0.76300
C1466       C  0.78222273  0.57082604  0.55600904     0.99600
C1467       C  0.81458566  0.74173477  0.54942971     0.94400
O1468       O  0.85750028  0.75308127  0.53872878    -0.81700
N1469       N  0.65678360  0.63151729  0.94862977    -0.35900
N1470       N  0.59747353  0.65460958  0.99825884    -0.56500
N1471       N  0.61032957  0.59036195  0.08637776    -0.35900
N1472       N  0.68237705  0.57993549  0.00604985    -0.56500
C1473       C  0.62767982  0.64074824  0.92342266     0.27700
C1474       C  0.67452994  0.60662040  0.92699821     0.27700
C1475       C  0.57853180  0.59916592  0.06471489     0.27700
C1476       C  0.61821996  0.55788889  0.06469942     0.27700
C1477       C  0.60199490  0.68524413  0.96978209     0.36300
C1478       C  0.58452237  0.66983718  0.03105816     0.36300
C1479       C  0.71630022  0.58573675  0.97995399     0.36300
C1480       C  0.69185012  0.56278146  0.03970931     0.36300
C1481       C  0.62470936  0.61891989  0.88627187    -0.21200
C1482       C  0.65568219  0.59907340  0.88835237    -0.21200
C1483       C  0.56006960  0.56579251  0.03215317    -0.21200
C1484       C  0.58700014  0.54132427  0.03117770    -0.21200
C1485       C  0.59203122  0.72186722  0.98423041    -0.22300
C1486       C  0.58173289  0.71247892  0.02399888    -0.22300
C1487       C  0.74992153  0.57368080  0.99695395    -0.22300
C1488       C  0.73473138  0.55949737  0.03507761    -0.22300
C1489       C  0.61172646  0.67594809  0.93122227    -0.17600
C1490       C  0.71137418  0.59516779  0.94007096    -0.17800
C1491       C  0.65948907  0.55126332  0.07194599    -0.17600
C1492       C  0.57948677  0.64530111  0.06648459    -0.17600
H1493       H  0.60559309  0.62081354  0.85959789     0.15300
H1494       H  0.66563838  0.58321981  0.86382882     0.15300
H1495       H  0.53487282  0.56429486  0.00861721     0.15300
H1496       H  0.58627157  0.51686023  0.00725921     0.15300
H1497       H  0.59228757  0.75184368  0.96810993     0.13600
H1498       H  0.57216604  0.73355184  0.04463918     0.13600
H1499       H  0.78054830  0.57284971  0.98288438     0.13600
H1500       H  0.75228867  0.54550737  0.05480208     0.13600
H1501       H  0.66992703  0.64776098  0.97697001     0.26800
H1502       H  0.63184839  0.61059814  0.11123809     0.26800
N1503       N  0.81216245  0.97067078  0.93706041    -0.35900
N1504       N  0.87391514  0.54911444  0.99039574    -0.56500
N1505       N  0.81699203  0.98379679  0.04879838    -0.35900
N1506       N  0.75225640  0.90057835  0.99703506    -0.56500
C1507       C  0.83736308  0.50706253  0.91216984     0.27700
C1508       C  0.77034964  0.93713693  0.91720263     0.27700
C1509       C  0.83491631  0.52778427  0.06849024     0.27700
C1510       C  0.78093165  0.95083237  0.07077207     0.27700
C1511       C  0.90299772  0.56499978  0.95908116     0.36300
C1512       C  0.90003489  0.57651412  0.02280693     0.36300
C1513       C  0.74431795  0.87043733  0.96483858     0.36300
C1514       C  0.75411379  0.87664748  0.02973509     0.36300
C1515       C  0.81088567  0.49751235  0.87641488    -0.21200
C1516       C  0.76843623  0.95445532  0.87984916    -0.21200
C1517       C  0.80887409  0.52248089  0.10243544    -0.21200
C1518       C  0.77525022  0.97431717  0.10398822    -0.21200
C1519       C  0.94833600  0.60409974  0.97148239    -0.22300
C1520       C  0.94637823  0.61162549  0.01210034    -0.22300
C1521       C  0.73835958  0.82533240  0.97717247    -0.22300
C1522       C  0.74488943  0.82942216  0.01850623    -0.22300
C1523       C  0.88581353  0.54634573  0.91968552    -0.17600
C1524       C  0.74657416  0.88617954  0.92516588    -0.17600
C1525       C  0.76616273  0.90026795  0.06827349    -0.17600
C1526       C  0.88021474  0.56959775  0.06090882    -0.17600
H1527       H  0.82160567  0.51825109  0.84978401     0.15300
H1528       H  0.74125134  0.93575633  0.85596120     0.15300
H1529       H  0.81594008  0.54983432  0.12536935     0.15300
H1530       H  0.75280767  0.95710985  0.12890939     0.15300
H1531       H  0.97921527  0.62490103  0.95332997     0.13600
H1532       H  0.97542054  0.63939132  0.03136821     0.13600
H1533       H  0.73228207  0.79380850  0.95838361     0.13600
H1534       H  0.74447763  0.80168235  0.03771626     0.13600
H1535       H  0.82720726  0.96394226  0.96259547     0.26800
H1536       H  0.83503507  0.97425787  0.02745339     0.26800
N1537       N  0.96584478  0.84147252  0.07882783    -0.35900
N1538       N  0.55740905  0.89942715  0.99964696    -0.56500
N1539       N  0.98038694  0.88089548  0.94805913    -0.35900
N1540       N  0.88988827  0.83410077  0.99595245    -0.56500
C1541       C  0.50952681  0.87997127  0.07002566     0.27700
C1542       C  0.93151308  0.85452133  0.06882348     0.27700
C1543       C  0.51965607  0.91102692  0.92676137     0.27700
C1544       C  0.93949309  0.87492020  0.92834724     0.27700
C1545       C  0.57386497  0.88302720  0.02980854     0.36300
C1546       C  0.57970831  0.89841504  0.96639674     0.36300
C1547       C  0.86192693  0.80765935  0.02539271     0.36300
C1548       C  0.87141548  0.80956109  0.96129630     0.36300
C1549       C  0.50231175  0.91715341  0.05447160    -0.21200
C1550       C  0.95304819  0.90142129  0.05405005    -0.21200
C1551       C  0.50281750  0.92885024  0.89571230    -0.21200
C1552       C  0.95263058  0.90619766  0.89694226    -0.21200
C1553       C  0.60844853  0.87076826  0.01574010    -0.22300
C1554       C  0.61346950  0.88220273  0.97568203    -0.22300
C1555       C  0.82127695  0.76586934  0.00856607    -0.22300
C1556       C  0.82809861  0.76660813  0.96754828    -0.22300
C1557       C  0.55335039  0.87714674  0.06790782    -0.17600
C1558       C  0.88118292  0.82063780  0.06524652    -0.17600
C1559       C  0.89666261  0.82843716  0.92635564    -0.17600
C1560       C  0.56591650  0.91115588  0.92960573    -0.17600
H1561       H  0.52971804  0.95090715  0.04285846     0.15300
H1562       H  0.93461398  0.92066089  0.04194466     0.15300
H1563       H  0.52204292  0.95070213  0.87123530     0.15300
H1564       H  0.92831957  0.90610372  0.87324575     0.15300
H1565       H  0.62757441  0.85499330  0.03222816     0.13600
H1566       H  0.63807960  0.87743347  0.95619598     0.13600
H1567       H  0.79142371  0.73658386  0.02332049     0.13600
H1568       H  0.80434333  0.73885366  0.94537970     0.13600
H1569       H  0.95880842  0.80591467  0.08572248     0.26800
H1570       H  0.97931277  0.85536800  0.96828480     0.26800
C1571       C  0.53169369  0.73940750  0.41599762     0.03000
C1572       C  0.97697401  0.71237426  0.41426388     0.02900
C1573       C  0.95312503  0.69236537  0.37680052    -0.17600
C1574       C  0.97864127  0.69532955  0.34244270     0.03000
C1575       C  0.53038330  0.71874744  0.34395726     0.02900
C1576       C  0.55575372  0.74004055  0.38045270    -0.17600
H1577       H  0.59545403  0.75718828  0.38144370     0.05000
H1578       H  0.91323450  0.67373716  0.37414194     0.05000
C1579       C  0.77454463  0.74194148  0.41658457     0.03000
C1580       C  0.75809412  0.77942602  0.41902636     0.02900
C1581       C  0.76160234  0.80645939  0.38494793    -0.17600
C1582       C  0.77402580  0.79480645  0.34828161     0.03000
C1583       C  0.78073714  0.75287188  0.34451058     0.02900
C1584       C  0.78275649  0.72835900  0.37836251    -0.17600
H1585       H  0.79293587  0.69942879  0.37493261     0.05000
H1586       H  0.75337706  0.83687712  0.38662321     0.05000
C1587       C  0.53638277  0.74756437  0.58524249     0.03000
C1588       C  0.98319708  0.71147916  0.58021385     0.02900
C1589       C  0.96099613  0.67848014  0.61110736    -0.17600
C1590       C  0.98526251  0.68125569  0.64679601     0.03000
C1591       C  0.53247526  0.72218161  0.65487514     0.02900
C1592       C  0.55805975  0.75314177  0.62402398    -0.17600
H1593       H  0.59614841  0.78093781  0.63004007     0.05000
H1594       H  0.92240606  0.65063674  0.60861118     0.05000
C1595       C  0.77924388  0.80008540  0.58241628     0.03000
C1596       C  0.81060062  0.77634912  0.58011677     0.02900
C1597       C  0.84712768  0.78863713  0.61069869    -0.17600
C1598       C  0.85159039  0.81779299  0.64426685     0.03000
C1599       C  0.81955749  0.83773819  0.64767384     0.02900
C1600       C  0.78633656  0.83086503  0.61627952    -0.17600
H1601       H  0.76217423  0.84691910  0.62017478     0.05000
H1602       H  0.87062716  0.77148415  0.61045914     0.05000
C1603       C  0.75828505  0.53280051  0.58858408     0.03000
C1604       C  0.72141160  0.97936250  0.58536368     0.02900
C1605       C  0.69270516  0.95864658  0.61900710    -0.17600
C1606       C  0.70079216  0.98469293  0.65537996     0.03000
C1607       C  0.74065858  0.53283342  0.66021950     0.02900
C1608       C  0.76767332  0.55643532  0.62703888    -0.17600
H1609       H  0.79622396  0.59465944  0.63124596     0.05000
H1610       H  0.66429737  0.92017826  0.61771282     0.05000
C1611       C  0.74204888  0.52428624  0.42235481     0.03000
C1612       C  0.71732681  0.97025988  0.41848167     0.02900
C1613       C  0.69621319  0.94788596  0.38080331    -0.17600
C1614       C  0.69557390  0.97574020  0.34890288     0.03000
C1615       C  0.71444061  0.52651784  0.35483225     0.02900
C1616       C  0.73795909  0.55013127  0.39031114    -0.17600
H1617       H  0.75431644  0.59023052  0.39247086     0.05000
H1618       H  0.67911551  0.90802181  0.37631899     0.05000
O1619       O  0.73658325  0.91725273  0.45798692    -0.81100
C1620       C  0.57503203  0.77286398  0.55385068     0.98200
O1621       O  0.58209049  0.81299095  0.53881727    -0.70200
O1622       O  0.66319046  0.90890834  0.54363645    -0.73800
Al1623     Al  0.62859734  0.85881928  0.50100277     1.49000
C1624       C  0.70855035  0.93919544  0.55227655     0.93500
O1625       O  0.75789635  0.84969298  0.54257587    -0.80000
O1626       O  0.69003062  0.76363695  0.46127085    -0.73600
Al1627     Al  0.73934298  0.87844926  0.50087239     1.90100
O1628       O  0.70264453  0.77137548  0.54128357    -0.72700
O1629       O  0.59358874  0.74792080  0.46591478    -0.72500
O1630       O  0.60562168  0.75725948  0.54695993    -0.78200
O1631       O  0.58493799  0.81348417  0.45772388    -0.76400
O1632       O  0.67274136  0.83497762  0.50185941    -1.12500
O1633       O  0.66351784  0.91045513  0.46339845    -0.71700
C1634       C  0.70651413  0.93278094  0.45001324     0.99000
C1635       C  0.74548097  0.80583304  0.55192529     0.95400
Al1636     Al  0.65033226  0.76781756  0.50378475     1.55600
O1637       O  0.74102128  0.92982280  0.53830031    -0.76300
C1638       C  0.56950359  0.76751539  0.45038916     0.99600
C1639       C  0.73374808  0.79312998  0.45187730     0.94400
O1640       O  0.75350733  0.83814384  0.46403898    -0.81700
C1641       C  0.84660146  0.78126239  0.82346817    -0.01300
C1642       C  0.89145460  0.79591167  0.80440409     0.07300
C1643       C  0.93363549  0.80751539  0.82844846    -0.07300
C1644       C  0.92941622  0.80214937  0.86959737     0.04700
C1645       C  0.88821935  0.80006421  0.88804064    -0.14500
C1646       C  0.84611964  0.78696631  0.86476464    -0.07900
C1647       C  0.89385558  0.79871168  0.76019561     0.05600
C1648       C  0.92054789  0.84519959  0.74357756    -0.09000
C1649       C  0.91369882  0.85109484  0.70297438     0.00600
C1650       C  0.87614854  0.81153334  0.68026488     0.00500
C1651       C  0.85495810  0.76449714  0.69516188    -0.12500
C1652       C  0.86524383  0.75752376  0.73395838     0.01000
C1653       C  0.94612012  0.89628341  0.68439600     0.40300
C1654       C  0.84721401  0.70720281  0.74380340     0.36900
C1655       C  0.80043826  0.75309465  0.80250846     0.36600
C1656       C  0.96659595  0.79915285  0.89393092     0.37400
N1657       N  0.97259219  0.93184676  0.66877392    -0.43400
N1658       N  0.83346012  0.66563478  0.74749930    -0.43900
N1659       N  0.99293003  0.79429432  0.91604599    -0.41200
N1660       N  0.76376381  0.72601131  0.78629989    -0.42700
H1661       H  0.81376371  0.78268202  0.87883986     0.13500
H1662       H  0.96857114  0.81772051  0.81525935     0.10000
H1663       H  0.94496230  0.87680266  0.76256349     0.11100
H1664       H  0.82849287  0.73303384  0.67674555     0.16900
C1665       C  0.60892210  0.95165486  0.73708229    -0.01300
C1666       C  0.63354663  0.94044652  0.76798304     0.07300
C1667       C  0.67430540  0.93477718  0.75802425    -0.07300
C1668       C  0.69052389  0.94058392  0.71911305     0.04700
C1669       C  0.67137884  0.95977799  0.69052485    -0.14500
C1670       C  0.62936377  0.96366582  0.69940019    -0.07900
C1671       C  0.61854379  0.93403902  0.81061212     0.05600
C1672       C  0.61278501  0.89200049  0.83025866    -0.09000
C1673       C  0.59996286  0.88494302  0.87026193     0.00600
C1674       C  0.59499427  0.92157284  0.89252784     0.00500
C1675       C  0.60714416  0.96607883  0.87423841    -0.12500
C1676       C  0.61453399  0.97085552  0.83338310     0.01000
C1677       C  0.59281693  0.84006163  0.88748598     0.40300
C1678       C  0.61076392  0.01052364  0.81539255     0.36900
C1679       C  0.56303350  0.95138348  0.74311479     0.36600
C1680       C  0.72637444  0.42611560  0.70868971     0.37400
N1681       N  0.58880743  0.80477854  0.90186112    -0.43400
N1682       N  0.60305988  0.54028580  0.80146135    -0.43900
N1683       N  0.75392745  0.41352336  0.69829773    -0.41200
N1684       N  0.52701008  0.95259916  0.74878493    -0.42700
H1685       H  0.61312106  0.97693887  0.67719867     0.13500
H1686       H  0.69376105  0.92596603  0.78080489     0.10000
H1687       H  0.61639881  0.86352957  0.81388293     0.11100
H1688       H  0.60433072  0.99495642  0.89107139     0.16900
C1689       C  0.57063469  0.87049697  0.17904229    -0.01300
C1690       C  0.61875850  0.90945890  0.18697040     0.07300
C1691       C  0.64879326  0.92919930  0.15456101    -0.07300
C1692       C  0.62982257  0.91542436  0.11518190     0.04700
C1693       C  0.57967112  0.88060750  0.10716477    -0.14500
C1694       C  0.55146156  0.85717030  0.13995249    -0.07900
C1695       C  0.63872905  0.92651888  0.22896316     0.05600
C1696       C  0.68534328  0.93259376  0.24074425    -0.09000
C1697       C  0.70365077  0.94610820  0.28024665     0.00600
C1698       C  0.67441166  0.95173378  0.30917744     0.00500
C1699       C  0.62759804  0.94438882  0.29782748    -0.12500
C1700       C  0.61091423  0.93491478  0.25801906     0.01000
C1701       C  0.75322310  0.95601672  0.29018762     0.40300
C1702       C  0.56694335  0.93792216  0.24760681     0.36900
C1703       C  0.54229684  0.84104969  0.21086758     0.36600
C1704       C  0.66186125  0.93988685  0.08372501     0.37400
N1705       N  0.79305364  0.96424366  0.29816140    -0.43400
N1706       N  0.53194947  0.94072382  0.23925924    -0.43900
N1707       N  0.68628602  0.95784372  0.05722439    -0.41200
N1708       N  0.52278611  0.81875768  0.23801994    -0.42700
H1709       H  0.51361618  0.82907161  0.13551569     0.13500
H1710       H  0.68673722  0.95680030  0.15999360     0.10000
H1711       H  0.70771870  0.92709145  0.21908231     0.11100
H1712       H  0.60565147  0.44959556  0.32004657     0.16900
C1713       C  0.84996744  0.76852525  0.25437517    -0.01300
C1714       C  0.81204896  0.75140262  0.22353282     0.07300
C1715       C  0.76294428  0.72424939  0.23497525    -0.07300
C1716       C  0.75171061  0.71758727  0.27520152     0.04700
C1717       C  0.78962262  0.73765934  0.30488357    -0.14500
C1718       C  0.83823946  0.75860672  0.29400320    -0.07900
C1719       C  0.82290837  0.76687729  0.18101579     0.05600
C1720       C  0.85514293  0.81618247  0.17495208    -0.09000
C1721       C  0.87131089  0.83409868  0.13795235     0.00600
C1722       C  0.85629167  0.80160614  0.10369746     0.00500
C1723       C  0.82074806  0.75201545  0.10870724    -0.12500
C1724       C  0.80203050  0.73549456  0.14655134     0.01000
C1725       C  0.90418902  0.88675712  0.13745946     0.40300
C1726       C  0.75934731  0.68785150  0.14867176     0.36900
C1727       C  0.90052647  0.80430634  0.24881388     0.36600
C1728       C  0.70106469  0.69402425  0.28607015     0.37400
N1729       N  0.93025840  0.92899182  0.13835092    -0.43400
N1730       N  0.72347113  0.65092670  0.15099701    -0.43900
N1731       N  0.66086863  0.67521693  0.29593121    -0.41200
N1732       N  0.94068450  0.83505834  0.24574747    -0.42700
H1733       H  0.86727422  0.77491954  0.31713900     0.13500
H1734       H  0.73291445  0.71239642  0.21319686     0.10000
H1735       H  0.86810450  0.84171412  0.19963825     0.11100
H1736       H  0.80778909  0.72567769  0.08382055     0.16900
C1737       C  0.88823902  0.64117942  0.15242969    -0.01300
C1738       C  0.91792132  0.63073361  0.17868099     0.07300
C1739       C  0.94120962  0.60502764  0.16284940    -0.07300
C1740       C  0.93420040  0.58944561  0.12252394     0.04700
C1741       C  0.90671942  0.60279394  0.09624507    -0.14500
C1742       C  0.88706934  0.63208611  0.11133448    -0.07900
C1743       C  0.92465908  0.64540982  0.22248728     0.05600
C1744       C  0.92397937  0.61184231  0.25030040    -0.09000
C1745       C  0.93617480  0.62572441  0.29063251     0.00600
C1746       C  0.95128621  0.67473323  0.30377091     0.00500
C1747       C  0.94803025  0.70721315  0.27722244    -0.12500
C1748       C  0.93403082  0.69286322  0.23719058     0.01000
C1749       C  0.93237742  0.58900970  0.31810975     0.40300
C1750       C  0.93097200  0.72826060  0.21193145     0.36900
C1751       C  0.85120618  0.65110722  0.16808514     0.36600
C1752       C  0.95279192  0.55703984  0.10907019     0.37400
N1753       N  0.92833957  0.55932221  0.34023029    -0.43400
N1754       N  0.42775085  0.75522397  0.19003016    -0.43900
N1755       N  0.96732794  0.53086815  0.09803393    -0.41200
N1756       N  0.82283778  0.65874331  0.18386708    -0.42700
H1757       H  0.86222965  0.63867287  0.09228128     0.13500
H1758       H  0.96374869  0.59570096  0.18218964     0.10000
H1759       H  0.91444699  0.57473118  0.24056791     0.11100
H1760       H  0.45852482  0.74468772  0.28748033     0.16900
C1761       C  0.93543258  0.65813121  0.74597890    -0.01300
C1762       C  0.93608559  0.61438076  0.75839469     0.07300
C1763       C  0.94314705  0.58654469  0.72746764    -0.07300
C1764       C  0.95573498  0.60488854  0.68890431     0.04700
C1765       C  0.95658307  0.64935455  0.67935643    -0.14500
C1766       C  0.94008499  0.67133365  0.70655944    -0.07900
C1767       C  0.92852076  0.59799184  0.80178610     0.05600
C1768       C  0.90321265  0.61468447  0.82681703    -0.09000
C1769       C  0.89962984  0.60673860  0.86781603     0.00600
C1770       C  0.91240387  0.57319317  0.88411057     0.00500
C1771       C  0.93521065  0.55338318  0.85979629    -0.12500
C1772       C  0.94512975  0.56664397  0.81978952     0.01000
C1773       C  0.88213437  0.63241875  0.89367171     0.40300
C1774       C  0.96953292  0.54410079  0.79868551     0.36900
C1775       C  0.94146295  0.69839774  0.77108054     0.36600
C1776       C  0.96786033  0.57810186  0.65961110     0.37400
N1777       N  0.87068957  0.65361629  0.91612257    -0.43400
N1778       N  0.48845098  0.52517451  0.78219145    -0.43900
N1779       N  0.97724524  0.55667826  0.63575435    -0.41200
N1780       N  0.94879669  0.73585934  0.78497273    -0.42700
H1781       H  0.94011804  0.70529503  0.69847512     0.13500
H1782       H  0.93919932  0.55065735  0.73256356     0.10000
H1783       H  0.88567431  0.63397184  0.81439290     0.11100
H1784       H  0.94365038  0.52587543  0.87176203     0.16900
C1785       C  0.74798265  0.80347319  0.73868931    -0.01300
C1786       C  0.77632294  0.84322721  0.76640449     0.07300
C1787       C  0.81768767  0.88505301  0.75275533    -0.07300
C1788       C  0.83155992  0.88638222  0.71325502     0.04700
C1789       C  0.80469460  0.84493130  0.68740055    -0.14500
C1790       C  0.76288406  0.80467923  0.70030375    -0.07900
C1791       C  0.76382489  0.84324737  0.80896738     0.05600
C1792       C  0.80069550  0.85571311  0.83880768    -0.09000
C1793       C  0.79211126  0.86141528  0.87870326     0.00600
C1794       C  0.74600017  0.85540563  0.88988334     0.00500
C1795       C  0.70867859  0.84187559  0.85998622    -0.12500
C1796       C  0.71800801  0.83766618  0.81978232     0.01000
C1797       C  0.83360952  0.88479824  0.90670753     0.40300
C1798       C  0.68308326  0.83392100  0.78911398     0.36900
C1799       C  0.70599243  0.75774139  0.74730565     0.36600
C1800       C  0.87077725  0.93124496  0.69918761     0.37400
N1801       N  0.86447506  0.90625716  0.93076250    -0.43400
N1802       N  0.65753264  0.83088044  0.76240303    -0.43900
N1803       N  0.90202766  0.96731752  0.68755479    -0.41200
N1804       N  0.67438761  0.71779477  0.74932397    -0.42700
H1805       H  0.74242281  0.77266495  0.68011779     0.13500
H1806       H  0.83856066  0.91701802  0.77271785     0.10000
H1807       H  0.83750515  0.86458998  0.83056683     0.11100
H1808       H  0.67491312  0.84156602  0.86724140     0.16900
C1809       C  0.82971891  0.87395873  0.25963642    -0.01300
C1810       C  0.78656138  0.86448306  0.23611366     0.07300
C1811       C  0.74213450  0.84444450  0.25629043    -0.07300
C1812       C  0.73860767  0.82667098  0.29467120     0.04700
C1813       C  0.77911299  0.82597108  0.31336094    -0.14500
C1814       C  0.82503066  0.85308685  0.29696016    -0.07900
C1815       C  0.78396771  0.87055830  0.19124072     0.05600
C1816       C  0.74185680  0.83591951  0.16789374    -0.09000
C1817       C  0.73494951  0.84275457  0.12719082     0.00600
C1818       C  0.77366267  0.87976152  0.10677016     0.00500
C1819       C  0.81756465  0.91040396  0.12915283    -0.12500
C1820       C  0.82019170  0.91020703  0.17076347     0.01000
C1821       C  0.68623489  0.81650509  0.10876899     0.40300
C1822       C  0.85517446  0.95592612  0.19064504     0.36900
C1823       C  0.87973602  0.90466371  0.24853152     0.36600
C1824       C  0.69465725  0.81273673  0.31585860     0.37400
N1825       N  0.64696962  0.79663368  0.09415223    -0.43400
N1826       N  0.88344130  0.99343404  0.20554387    -0.43900
N1827       N  0.66147132  0.80412600  0.33513544    -0.41200
N1828       N  0.92063214  0.92870121  0.24109759    -0.42700
H1829       H  0.85749313  0.85703741  0.31319840     0.13500
H1830       H  0.70999240  0.84304524  0.24216958     0.10000
H1831       H  0.71235149  0.80527391  0.18202646     0.11100
H1832       H  0.84719373  0.94082522  0.11467819     0.16900
C1833       C  0.54966316  0.69638992  0.15675440    -0.01300
C1834       C  0.58655400  0.70119668  0.18465249     0.07300
C1835       C  0.62855253  0.70118638  0.16976884    -0.07300
C1836       C  0.62940535  0.69040116  0.12898026     0.04700
C1837       C  0.58564944  0.67101304  0.10530569    -0.14500
C1838       C  0.54713712  0.67717113  0.11858210    -0.07900
C1839       C  0.58234322  0.70947123  0.22802581     0.05600
C1840       C  0.56743135  0.67017910  0.25356071    -0.09000
C1841       C  0.55745656  0.67549456  0.29336040     0.00600
C1842       C  0.55695279  0.71888081  0.30706771     0.00500
C1843       C  0.57425640  0.75917585  0.28182985    -0.12500
C1844       C  0.58952415  0.75509148  0.24345026     0.01000
C1845       C  0.04770322  0.63587842  0.31952395     0.40300
C1846       C  0.61467296  0.79725387  0.21963459     0.36900
C1847       C  0.52337531  0.72308044  0.16126387     0.36600
C1848       C  0.67510469  0.70628965  0.10950774     0.37400
N1849       N  0.04176346  0.60480365  0.34079972    -0.43400
N1850       N  0.63652968  0.82773852  0.19779961    -0.43900
N1851       N  0.70983319  0.72005552  0.09096332    -0.41200
N1852       N  0.50459938  0.74727156  0.15926318    -0.42700
H1853       H  0.51700283  0.67070913  0.09798362     0.13500
H1854       H  0.66084840  0.71228094  0.18908270     0.10000
H1855       H  0.56325583  0.63528334  0.24223469     0.11100
H1856       H  0.57609911  0.79356140  0.29215129     0.16900
C1857       C  0.54449689  0.70775918  0.85315709    -0.01300
C1858       C  0.57769640  0.72140399  0.82211052     0.07300
C1859       C  0.62535065  0.72984322  0.83135332    -0.07300
C1860       C  0.63892320  0.72148917  0.86869246     0.04700
C1861       C  0.60321455  0.70033538  0.89718014    -0.14500
C1862       C  0.55667300  0.69530528  0.88969639    -0.07900
C1863       C  0.56420811  0.72174547  0.77931586     0.05600
C1864       C  0.55579674  0.75940556  0.76492392    -0.09000
C1865       C  0.55053172  0.76385853  0.72373538     0.00600
C1866       C  0.55403824  0.73035377  0.69624947     0.00500
C1867       C  0.56405684  0.69394350  0.71081021    -0.12500
C1868       C  0.56721658  0.68829550  0.75160329     0.01000
C1869       C  0.53942492  0.80162550  0.71049368     0.40300
C1870       C  0.57366305  0.64747096  0.76422799     0.36900
C1871       C  0.50081920  0.71179691  0.85202204     0.36600
C1872       C  0.68832950  0.73000721  0.87612064     0.37400
N1873       N  0.53048833  0.83197566  0.70007933    -0.43400
N1874       N  0.58041249  0.61549391  0.77380357    -0.43900
N1875       N  0.72697222  0.73475549  0.88330145    -0.41200
N1876       N  0.46627313  0.71581513  0.85694795    -0.42700
H1877       H  0.52980959  0.68182618  0.91242693     0.13500
H1878       H  0.65200879  0.74195491  0.80914204     0.10000
H1879       H  0.55382740  0.78559006  0.78578778     0.11100
H1880       H  0.56543807  0.66720368  0.69010177     0.16900
C1881       C  0.73217490  0.58522199  0.76062907    -0.01300
C1882       C  0.76164109  0.57222683  0.78508287     0.07300
C1883       C  0.79061280  0.55442475  0.76674950    -0.07300
C1884       C  0.78913622  0.54839018  0.72506202     0.04700
C1885       C  0.75571611  0.55630730  0.70120759    -0.14500
C1886       C  0.72830774  0.57591530  0.71931275    -0.07900
C1887       C  0.76178494  0.57748464  0.82938537     0.05600
C1888       C  0.73573497  0.53580642  0.85207088    -0.09000
C1889       C  0.72792258  0.54161645  0.89245951     0.00600
C1890       C  0.74058747  0.58865967  0.90873870     0.00500
C1891       C  0.76954796  0.62984737  0.88724567    -0.12500
C1892       C  0.78241735  0.62428754  0.84901849     0.01000
C1893       C  0.70766332  0.50016517  0.91754273     0.40300
C1894       C  0.82431139  0.66544298  0.83496749     0.36900
C1895       C  0.70655580  0.60937829  0.77722460     0.36600
C1896       C  0.81987578  0.53130337  0.70667828     0.37400
N1897       N  0.69354346  0.46868986  0.93961454    -0.43400
N1898       N  0.86202574  0.69791928  0.82827239    -0.43900
N1899       N  0.84312643  0.51722751  0.68999581    -0.41200
N1900       N  0.68685705  0.62966886  0.79062758    -0.42700
H1901       H  0.70275859  0.58253889  0.70128111     0.13500
H1902       H  0.81429764  0.54533908  0.78477187     0.10000
H1903       H  0.72111966  0.49922943  0.83822222     0.11100
H1904       H  0.78192596  0.66655703  0.90040926     0.16900
C1905       C  0.72483251  0.55542976  0.17210210    -0.01300
C1906       C  0.68909698  0.55337389  0.19848060     0.07300
C1907       C  0.64086361  0.53069053  0.18256614    -0.07300
C1908       C  0.63036253  0.52429976  0.14193643     0.04700
C1909       C  0.66924580  0.54307789  0.11474092    -0.14500
C1910       C  0.71650703  0.55569029  0.13084494    -0.07900
C1911       C  0.69992570  0.56823477  0.24232669     0.05600
C1912       C  0.74810914  0.58684472  0.25899941    -0.09000
C1913       C  0.75518322  0.57941521  0.29862856     0.00600
C1914       C  0.71428327  0.55669363  0.32204514     0.00500
C1915       C  0.67028065  0.55471004  0.30945212    -0.12500
C1916       C  0.66313109  0.56202253  0.26970712     0.01000
C1917       C  0.80341960  0.59176025  0.31439083     0.40300
C1918       C  0.61873036  0.56399680  0.25942297     0.36900
C1919       C  0.76367283  0.54551487  0.18573089     0.36600
C1920       C  0.57856687  0.50000109  0.13075262     0.37400
N1921       N  0.84125768  0.60136718  0.32889296    -0.43400
N1922       N  0.58250410  0.56464560  0.25162163    -0.43900
N1923       N  0.53659873  0.48229500  0.12438838    -0.41200
N1924       N  0.79348874  0.53626069  0.19779286    -0.42700
H1925       H  0.74764441  0.56726579  0.11267848     0.13500
H1926       H  0.61004200  0.51521576  0.20127242     0.10000
H1927       H  0.78007220  0.60418370  0.24139742     0.11100
H1928       H  0.64056538  0.04399262  0.32927576     0.16900
loop_ 
_geom_bond_atom_site_label_1 
_geom_bond_atom_site_label_2 
_geom_bond_distance 
_geom_bond_site_symmetry_2 
_ccdc_geom_bond_type 
O1           C16   1.276       .  A
O1           Al9   1.999       .  S
C2           O12   1.270       .  A
C2            O3   1.273       .  A
C2          C165   1.500       .  S
O3           Al5   1.932       .  S
O4            C6   1.277       .  A
O4           Al5   1.989       .  S
Al5          O13   2.012       .  S
Al5          O15   1.897       .  S
Al5          O14   1.832       .  S
C6           O19   1.266       .  A
C6          C126   1.534       .  S
O7           C17   1.279       .  A
O7           Al9   1.978       .  S
O8           C21   1.268       .  A
O8          Al18   1.978       .  S
Al9          O22   1.892       .  S
Al9          O19   1.936       .  S
Al9          O14   1.837       .  S
O10          C17   1.274       .  A
O10         Al18   1.952       .  S
O11          C20   1.279       .  A
O11         Al18   1.953       .  S
O12         Al18   1.947       .  S
O13          C20   1.276       .  A
O14         Al18   1.841       .  S
O15          C16   1.275       .  A
C16         C142   1.526       .  S
C17         C133   1.527       .  S
C20         C157   1.549       .  S
C21          O22   1.267       .  A
C21         C150   1.519       .  S
N23          C28   1.351       .  A
N23          C27   1.355       .  A
N23          H55   1.044       .  S
N24          C31   1.326       .  A
N24          C32   1.335   1_556  A
N25          C30   1.344       .  A
N25          C29   1.345       .  A
N25          H56   1.040       .  S
N26          C33   1.336   1_554  A
N26          C34   1.347       .  A
C27          C35   1.387       .  A
C27          C43   1.416       .  A
C28          C44   1.412       .  A
C28          C36   1.381       .  A
C29          C37   1.392       .  A
C29          C46   1.410       .  A
C30          C45   1.406       .  A
C30          C38   1.384       .  A
C31          C43   1.395       .  A
C31          C39   1.388       .  A
C32          C46   1.401       .  A
C32          C40   1.386       .  A
C33          C41   1.381       .  A
C33          C44   1.402       .  A
C34          C42   1.393       .  A
C34          C45   1.429       .  A
C35          C36   1.366       .  A
C35          H47   1.082       .  S
C36          H48   1.075       .  S
C37          C38   1.369       .  A
C37          H49   1.083       .  S
C38          H50   1.083       .  S
C39          C40   1.390   1_556  A
C39          H51   1.082       .  S
C40          H52   1.081       .  S
C41          C42   1.387   1_556  A
C41          H53   1.083       .  S
C42          H54   1.071       .  S
C43         C415   1.473       .  S
C44         C444   1.479       .  S
C45         C463   1.518       .  S
C46         C391   1.472       .  S
N57          C62   1.353       .  A
N57         C543   1.353       .  A
N57          H89   1.040       .  S
N58          C65   1.347       .  A
N58          C66   1.347   1_556  A
N59          C64   1.349       .  A
N59         C545   1.347       .  A
N59          H90   1.042       .  S
N60          C67   1.349       .  A
N60          C68   1.357   1_556  A
C61         N539   1.353   1_545  A
C61          C69   1.383   1_545  A
C61          C77   1.416       .  A
C62          C78   1.417       .  A
C62          C70   1.391       .  A
C63         N541   1.347   1_545  A
C63          C71   1.384       .  A
C63          C80   1.412       .  A
C64          C79   1.399       .  A
C64          C72   1.379       .  A
C65          C77   1.417       .  A
C65          C73   1.386       .  A
C66          C80   1.414       .  A
C66          C74   1.385       .  A
C67          C75   1.390       .  A
C67          C78   1.426       .  A
C68          C76   1.385       .  A
C68          C79   1.423       .  A
C69         C552   1.365       .  A
C69          H81   1.079   1_565  S
C70         C551   1.365       .  A
C70          H82   1.080       .  S
C71         C554   1.360   1_545  A
C71          H83   1.068       .  S
C72         C553   1.361       .  A
C72          H84   1.080       .  S
C73          C74   1.390   1_556  A
C73          H85   1.077       .  S
C74          H86   1.081       .  S
C75          C76   1.396   1_556  A
C75          H87   1.082       .  S
C76          H88   1.082       .  S
C77         C324   1.498       .  S
C78         C348   1.498       .  S
C79         C372   1.518       .  S
C80         C295   1.491       .  S
N91          C96   1.345       .  A
N91        C1059   1.348       .  A
N91         H123   1.045       .  S
N92          C99   1.341   1_556  A
N92         C100   1.339       .  A
N93          C98   1.345       .  A
N93        C1061   1.358       .  A
N93         H124   1.044       .  S
N94         C101   1.343   1_556  A
N94         C102   1.331       .  A
C95        N1055   1.348   1_455  A
C95         C103   1.383       .  A
C95         C111   1.406       .  A
C96         C112   1.399       .  A
C96         C104   1.383       .  A
C97        N1057   1.358   1_455  A
C97         C105   1.395       .  A
C97         C114   1.433       .  A
C98         C113   1.409       .  A
C98         C106   1.383       .  A
C99         C111   1.424       .  A
C99         C107   1.387       .  A
C100        C114   1.426       .  A
C100        C108   1.392       .  A
C101        C109   1.392       .  A
C101        C112   1.422       .  A
C102        C110   1.386       .  A
C102        C113   1.407       .  A
C103       C1068   1.365   1_455  A
C103        H115   1.071       .  S
C104       C1067   1.365       .  A
C104        H116   1.083       .  S
C105       C1070   1.366   1_455  A
C105        H117   1.075       .  S
C106       C1069   1.365       .  A
C106        H118   1.083       .  S
C107        C108   1.397   1_554  A
C107        H119   1.082       .  S
C108        H120   1.079       .  S
C109        C110   1.403   1_554  A
C109        H121   1.078       .  S
C110        H122   1.081       .  S
C111        C247   1.511       .  S
C112        C276   1.507       .  S
C113        C199   1.486       .  S
C114        C228   1.508       .  S
C125        C192   1.540       .  S
C125        C130   1.422       .  A
C125       C1090   1.487   1_455  A
C126        C127   1.413       .  A
C126       C1089   1.487       .  A
C127        C128   1.399       .  A
C127        H132   1.084       .  S
C128        C300   1.486       .  S
C128       C1093   1.405       .  A
C129        C396   1.507       .  S
C129        C130   1.406       .  A
C129       C1092   1.404   1_455  A
C130        H131   1.080       .  S
C133        C134   1.473       .  A
C133        C138   1.411       .  A
C134        C193   1.516       .  S
C134        C135   1.412       .  A
C135        C136   1.393       .  A
C135        H140   1.086       .  S
C136        C367   1.501       .  S
C136        C137   1.410       .  A
C137        C271   1.480       .  S
C137        C138   1.401       .  A
C138        H139   1.086       .  S
C141        C174   1.539       .  S
C141        C146   1.422       .  A
C141       C1106   1.480   1_455  A
C142        C143   1.417       .  A
C142       C1105   1.480       .  A
C143        C144   1.380       .  A
C143        H148   1.086       .  S
C144        C319   1.491       .  S
C144       C1109   1.407       .  A
C145        C420   1.492       .  S
C145        C146   1.409       .  A
C145       C1108   1.407   1_455  A
C146        H147   1.085       .  S
C149        C189   1.521       .  S
C149        C150   1.474       .  A
C149        C154   1.409       .  A
C150        C151   1.413       .  A
C151        C152   1.390       .  A
C151        H156   1.087       .  S
C152        C204   1.481       .  S
C152        C153   1.403       .  A
C153        C343   1.473       .  S
C153        C154   1.396       .  A
C154        H155   1.088       .  S
C157        C162   1.423       .  A
C157        C640   1.489   1_545  A
C158        C178   1.541       .  S
C158        C159   1.423       .  A
C158        C639   1.489       .  A
C159        C160   1.398       .  A
C159        H164   1.085       .  S
C160        C223   1.500       .  S
C160        C643   1.405       .  A
C161        C439   1.498       .  S
C161        C162   1.408       .  A
C161        C642   1.405   1_545  A
C162        H163   1.085       .  S
C165        C170   1.397       .  A
C165        C648   1.470   1_545  A
C166        C188   1.512       .  S
C166        C167   1.413       .  A
C166        C647   1.469       .  A
C167        C168   1.399       .  A
C167        H172   1.085       .  S
C168        C252   1.487       .  S
C168        C651   1.404       .  A
C169        C468   1.464       .  S
C169        C170   1.376       .  A
C169        C650   1.404   1_545  A
C170        H171   1.089       .  S
O173        C188   1.263       .  A
O173       Al181   1.926       .  S
C174        O184   1.277       .  A
C174        O175   1.271       .  A
O175       Al177   1.981       .  S
O176        C178   1.280       .  A
O176       Al177   1.955       .  S
Al177       O185   1.974       .  S
Al177       O187   1.957       .  S
Al177       O186   1.839       .  S
C178        O191   1.271       .  A
O179        C189   1.268       .  A
O179       Al181   1.899       .  S
O180        C193   1.271       .  A
O180       Al190   1.953       .  S
Al181       O194   1.939       .  S
Al181       O191   1.982       .  S
Al181       O186   1.845       .  S
O182        C189   1.274       .  A
O182       Al190   1.989       .  S
O183        C192   1.276       .  A
O183       Al190   1.977       .  S
O184       Al190   1.958       .  S
O185        C192   1.276       .  A
O186       Al190   1.847       .  S
O187        C188   1.272       .  A
C193        O194   1.271       .  A
C195        C196   1.416       .  A
C195        C200   1.400       .  A
C195        C209   1.423       .  S
C196        C201   1.496       .  S
C196        C197   1.406       .  A
C197        C198   1.402       .  A
C197        H216   1.083       .  S
C198        C199   1.409       .  A
C198        C210   1.438       .  S
C199        C200   1.381       .  A
C200        H215   1.072       .  S
C201        C202   1.407       .  A
C201        C206   1.416       .  A
C202        C203   1.409       .  A
C202        H217   1.081       .  S
C203        C204   1.405       .  A
C203        C207   1.441       .  S
C204        C205   1.388       .  A
C205        C206   1.384       .  A
C205        H218   1.086       .  S
C206        C208   1.427       .  S
C207        N211   1.158       .  T
C208        N212   1.153       .  T
C209        N214   1.150       .  T
C210        N213   1.156       .  T
C219        C220   1.421       .  A
C219        C224   1.410       .  A
C219        C233   1.438       .  S
C220        C225   1.509       .  S
C220        C221   1.404       .  A
C221        C222   1.401       .  A
C221        H240   1.082       .  S
C222        C223   1.403       .  A
C222        C716   1.435       .  S
C223        C224   1.403       .  A
C224        H239   1.084       .  S
C225        C226   1.407       .  A
C225        C230   1.412       .  A
C226        C227   1.407       .  A
C226        H241   1.079       .  S
C227        C228   1.413       .  A
C227        C231   1.434       .  S
C228        C229   1.402       .  A
C229        C230   1.401       .  A
C229        H242   1.085       .  S
C230        C232   1.432       .  S
C231        N235   1.156       .  T
C232        N718   1.155       .  T
C233        N238   1.156       .  T
C234        C704   1.434       .  S
C234        N237   1.154       .  T
N236        C714   1.155       .  T
C243        C244   1.408       .  A
C243        C248   1.399       .  A
C243        C257   1.441       .  S
C244        C249   1.506       .  S
C244        C245   1.403       .  A
C245        C246   1.407       .  A
C245        H264   1.077       .  S
C246        C247   1.415       .  A
C246        C258   1.432       .  S
C247        C248   1.410       .  A
C248        H263   1.076       .  S
C249        C250   1.410       .  A
C249        C254   1.419       .  A
C250        C251   1.405       .  A
C250        H265   1.084       .  S
C251        C252   1.411       .  A
C251        C255   1.444       .  S
C252        C253   1.398       .  A
C253        C254   1.397       .  A
C253        H748   1.085       .  S
C254        C256   1.445       .  S
C255        N259   1.157       .  T
C256        N260   1.157       .  T
C257        N262   1.156       .  T
C258        N261   1.155       .  T
H266        C735   1.085       .  S
C267        C268   1.433       .  A
C267        C272   1.395       .  A
C267        C281   1.439       .  S
C268        C273   1.515       .  S
C268        C269   1.410       .  A
C269        C270   1.403       .  A
C269        H288   1.079       .  S
C270        C271   1.405       .  A
C270        C282   1.439       .  S
C271        C272   1.388       .  A
C272        H287   1.087       .  S
C273        C274   1.386       .  A
C273        C278   1.418       .  A
C274        C275   1.382       .  A
C274        H289   1.059       .  S
C275        C276   1.422       .  A
C275        C279   1.446       .  S
C276        C277   1.410       .  A
C277        C278   1.417       .  A
C277        H290   1.077       .  S
C278        C280   1.435       .  S
C279        N283   1.157       .  T
C280        N284   1.154       .  T
C281        N286   1.156       .  T
C282        N285   1.155       .  T
C291        C292   1.411       .  A
C291        C296   1.402       .  A
C291        C305   1.432       .  S
C292        C297   1.513       .  S
C292        C293   1.409       .  A
C293        C294   1.406       .  A
C293        H312   1.084       .  S
C294        C295   1.413       .  A
C294        C306   1.444       .  S
C295        C296   1.404       .  A
C296        H311   1.086       .  S
C297        C298   1.407       .  A
C297        C302   1.423       .  A
C298        C299   1.401       .  A
C298        H313   1.076       .  S
C299        C300   1.407       .  A
C299        C303   1.444       .  S
C300        C301   1.398       .  A
C301        C302   1.400       .  A
C301       H1278   1.085       .  S
C302        C304   1.439       .  S
C303        N307   1.157       .  T
C304       N1272   1.158       .  T
C305        N310   1.153       .  T
C306        N309   1.157       .  T
N308       C1268   1.159       .  T
H314       C1265   1.085       .  S
C315        C316   1.433       .  A
C315        C320   1.389       .  A
C315        C329   1.419       .  S
C316        C321   1.545       .  S
C316        C317   1.421       .  A
C317        C318   1.418       .  A
C317        H336   1.074       .  S
C318        C319   1.406       .  A
C318        C330   1.441       .  S
C319        C320   1.374       .  A
C320        H335   1.089       .  S
C321        C322   1.412       .  A
C321        C326   1.436       .  A
C322        C323   1.407       .  A
C322        H337   1.067       .  S
C323        C324   1.394       .  A
C323        C327   1.444       .  S
C324        C325   1.402       .  A
C325        C326   1.416       .  A
C325        H338   1.085       .  S
C326        C328   1.439       .  S
C327        N331   1.157       .  T
C328       N1296   1.157       .  T
C329        N334   1.150       .  T
C330        N333   1.157       .  T
N332       C1292   1.157       .  T
C339        C340   1.420       .  A
C339        C344   1.380       .  A
C339        C353   1.430       .  S
C340        C345   1.495       .  S
C340        C341   1.411       .  A
C341        C342   1.404       .  A
C341        H360   1.085       .  S
C342        C343   1.405       .  A
C342        C354   1.436       .  S
C343        C344   1.386       .  A
C344        H359   1.088       .  S
C345        C346   1.402       .  A
C345        C350   1.405       .  A
C346        C347   1.400       .  A
C346        H361   1.083       .  S
C347        C348   1.412       .  A
C347        C351   1.442       .  S
C348        C349   1.408       .  A
C349        C350   1.408       .  A
C349        H362   1.076       .  S
C350        C352   1.439       .  S
C351        N355   1.156       .  T
C352        N356   1.155       .  T
C353        N358   1.154       .  T
C354        N357   1.156       .  T
C363        C364   1.436       .  A
C363        C368   1.406       .  A
C363        C377   1.441       .  S
C364        C369   1.533       .  S
C364        C365   1.411       .  A
C365        C366   1.403       .  A
C365        H384   1.074       .  S
C366        C367   1.400       .  A
C366        C378   1.432       .  S
C367        C368   1.396       .  A
C368        H383   1.085       .  S
C369        C370   1.425       .  A
C369        C374   1.412       .  A
C370        C371   1.419       .  A
C370        H385   1.082       .  S
C371        C372   1.407       .  A
C371        C375   1.440       .  S
C372        C373   1.411       .  A
C373        C374   1.403       .  A
C373        H386   1.086       .  S
C374        C376   1.436       .  S
C375        N379   1.156       .  T
C376        N380   1.155       .  T
C377        N382   1.158       .  T
C378        N381   1.153       .  T
C387        C388   1.410       .  A
C387        C392   1.387       .  A
C387        C401   1.418       .  S
C388        C393   1.497       .  S
C388        C389   1.407       .  A
C389        C390   1.410       .  A
C389        H408   1.081       .  S
C390        C391   1.405       .  A
C390        C402   1.440       .  S
C391        C392   1.379       .  A
C392        H407   1.084       .  S
C393        C394   1.399       .  A
C393        C398   1.400       .  A
C394        C395   1.407       .  A
C394        H409   1.080       .  S
C395        C396   1.414       .  A
C395       C1363   1.442       .  S
C396        C397   1.411       .  A
C397        C398   1.411       .  A
C397        H410   1.083       .  S
C398        C400   1.433       .  S
C399       C1359   1.442       .  S
C399        N403   1.157       .  T
C400        N404   1.154       .  T
C401        N406   1.149       .  T
C402        N405   1.156       .  T
C411        C412   1.411       .  A
C411        C416   1.395       .  A
C411        C425   1.418       .  S
C412        C417   1.493       .  S
C412        C413   1.396       .  A
C413        C414   1.385       .  A
C413        H432   1.063       .  S
C414        C415   1.401       .  A
C414        C426   1.438       .  S
C415        C416   1.391       .  A
C416        H431   1.081       .  S
C417        C418   1.403       .  A
C417        C422   1.413       .  A
C418        C419   1.411       .  A
C418        H433   1.083       .  S
C419        C420   1.416       .  A
C419        C423   1.443       .  S
C420        C421   1.399       .  A
C421        C422   1.397       .  A
C421        H434   1.085       .  S
C422        C424   1.440       .  S
C423        N427   1.157       .  T
C424        N428   1.155       .  T
C425        N430   1.151   1_455  T
C426        N429   1.153       .  T
C435        C436   1.416       .  A
C435        C440   1.405       .  A
C435        C449   1.439       .  S
C436        C441   1.497       .  S
C436        C437   1.406       .  A
C437        C438   1.409       .  A
C437        H456   1.082       .  S
C438        C439   1.411       .  A
C438        C450   1.438       .  S
C439        C440   1.401       .  A
C440        H455   1.084       .  S
C441        C442   1.405       .  A
C441        C446   1.406       .  A
C442        C443   1.410       .  A
C442        H457   1.082   1_545  S
C443        C444   1.402       .  A
C443        C447   1.433       .  S
C444        C445   1.389       .  A
C445        C446   1.389       .  A
C445        H458   1.085       .  S
C446        C448   1.414       .  S
C447        N451   1.154   1_545  T
C448        N452   1.149       .  T
C449        N454   1.156       .  T
C450        N453   1.155       .  T
C459        C460   1.416       .  A
C459        C464   1.408       .  A
C459        C473   1.445       .  S
C460        C465   1.516       .  S
C460        C461   1.396       .  A
C461        C462   1.386       .  A
C461        H480   1.070       .  S
C462        C463   1.428       .  A
C462        C474   1.442   1_545  S
C463        C464   1.412       .  A
C464        H479   1.069       .  S
C465        C466   1.412       .  A
C465        C470   1.428       .  A
C466        C467   1.390       .  A
C466        H481   1.075       .  S
C467        C468   1.395       .  A
C467        C471   1.437       .  S
C468        C469   1.390       .  A
C469        C470   1.393       .  A
C469        H964   1.085       .  S
C470        C472   1.441       .  S
C471        N475   1.154       .  T
C472        N476   1.156       .  T
C473        N478   1.158       .  T
C474        N477   1.155       .  T
H482        C951   1.085       .  S
O483        C498   1.276       .  A
O483       Al491   1.999       .  S
C484        O494   1.270       .  A
C484        O485   1.273       .  A
C484        C647   1.500       .  S
O485       Al487   1.932       .  S
O486        C488   1.277       .  A
O486       Al487   1.989       .  S
Al487       O495   2.012       .  S
Al487       O497   1.898       .  S
Al487       O496   1.832       .  S
C488        O501   1.266       .  A
C488        C608   1.534       .  S
O489        C499   1.279       .  A
O489       Al491   1.977       .  S
O490        C503   1.268       .  A
O490       Al500   1.977       .  S
Al491       O504   1.892       .  S
Al491       O501   1.935       .  S
Al491       O496   1.837       .  S
O492        C499   1.274       .  A
O492       Al500   1.952       .  S
O493        C502   1.278       .  A
O493       Al500   1.953       .  S
O494       Al500   1.947       .  S
O495        C502   1.276       .  A
O496       Al500   1.840       .  S
O497        C498   1.275       .  A
C498        C624   1.526       .  S
C499        C615   1.527       .  S
C502        C639   1.549       .  S
C503        O504   1.267       .  A
C503        C632   1.518       .  S
N505        C510   1.351       .  A
N505        C509   1.355       .  A
N505        H537   1.044       .  S
N506        C513   1.326       .  A
N506        C514   1.335   1_556  A
N507        C512   1.345       .  A
N507        C511   1.345       .  A
N507        H538   1.040       .  S
N508        C515   1.336   1_554  A
N508        C516   1.347       .  A
C509        C517   1.386       .  A
C509        C525   1.415       .  A
C510        C526   1.412       .  A
C510        C518   1.381       .  A
C511        C519   1.392       .  A
C511        C528   1.411       .  A
C512        C527   1.406       .  A
C512        C520   1.383       .  A
C513        C525   1.395       .  A
C513        C521   1.388       .  A
C514        C528   1.401       .  A
C514        C522   1.386       .  A
C515        C523   1.381       .  A
C515        C526   1.402       .  A
C516        C524   1.393       .  A
C516        C527   1.429       .  A
C517        C518   1.366       .  A
C517        H529   1.082       .  S
C518        H530   1.075       .  S
C519        C520   1.370       .  A
C519        H531   1.083       .  S
C520        H532   1.083       .  S
C521        C522   1.390   1_556  A
C521        H533   1.082       .  S
C522        H534   1.081       .  S
C523        C524   1.387   1_556  A
C523        H535   1.083       .  S
C524        H536   1.071       .  S
C525        C897   1.473       .  S
C526        C926   1.479       .  S
C527        C945   1.517       .  S
C528        C873   1.473       .  S
N539        C544   1.353       .  A
N539        H571   1.040       .  S
N540        C547   1.347       .  A
N540        C548   1.347   1_556  A
N541        C546   1.348       .  A
N541        H572   1.042       .  S
N542        C549   1.349       .  A
N542        C550   1.357   1_556  A
C543        C551   1.383       .  A
C543        C559   1.416       .  A
C544        C560   1.417       .  A
C544        C552   1.391       .  A
C545        C553   1.384       .  A
C545        C562   1.413       .  A
C546        C561   1.399       .  A
C546        C554   1.379       .  A
C547        C559   1.417       .  A
C547        C555   1.386       .  A
C548        C562   1.414       .  A
C548        C556   1.385       .  A
C549        C557   1.390       .  A
C549        C560   1.426       .  A
C550        C558   1.385       .  A
C550        C561   1.423       .  A
C551        H563   1.079       .  S
C552        H564   1.080       .  S
C553        H565   1.068       .  S
C554        H566   1.080       .  S
C555        C556   1.390   1_556  A
C555        H567   1.077       .  S
C556        H568   1.081       .  S
C557        C558   1.396   1_556  A
C557        H569   1.082       .  S
C558        H570   1.082       .  S
C559        C806   1.498       .  S
C560        C830   1.498       .  S
C561        C854   1.518       .  S
C562        C777   1.491       .  S
N573        C578   1.345       .  A
N573       C1541   1.348       .  A
N573        H605   1.045       .  S
N574        C581   1.341   1_556  A
N574        C582   1.339       .  A
N575        C580   1.345       .  A
N575       C1543   1.358       .  A
N575        H606   1.044       .  S
N576        C583   1.344   1_556  A
N576        C584   1.331       .  A
C577       N1537   1.348   1_455  A
C577        C585   1.383       .  A
C577        C593   1.405       .  A
C578        C594   1.399       .  A
C578        C586   1.383       .  A
C579       N1539   1.358   1_455  A
C579        C587   1.395       .  A
C579        C596   1.433       .  A
C580        C595   1.409       .  A
C580        C588   1.383       .  A
C581        C593   1.424       .  A
C581        C589   1.387       .  A
C582        C596   1.426       .  A
C582        C590   1.392       .  A
C583        C591   1.392       .  A
C583        C594   1.423       .  A
C584        C592   1.386       .  A
C584        C595   1.407       .  A
C585       C1550   1.365   1_455  A
C585        H597   1.071       .  S
C586       C1549   1.365       .  A
C586        H598   1.083       .  S
C587       C1552   1.365   1_455  A
C587        H599   1.075       .  S
C588       C1551   1.366       .  A
C588        H600   1.083       .  S
C589        C590   1.397   1_554  A
C589        H601   1.082       .  S
C590        H602   1.079       .  S
C591        C592   1.403   1_554  A
C591        H603   1.078       .  S
C592        H604   1.081       .  S
C593        C729   1.510       .  S
C594        C758   1.508       .  S
C595        C681   1.487       .  S
C596        C710   1.508       .  S
C607        C674   1.541       .  S
C607       C1572   1.487   1_455  A
C607        C612   1.423       .  A
C608       C1571   1.487       .  A
C608        C609   1.413       .  A
C609        C610   1.399       .  A
C609        H614   1.084       .  S
C610        C782   1.485       .  S
C610       C1575   1.404       .  A
C611        C878   1.507       .  S
C611       C1574   1.404   1_455  A
C611        C612   1.406       .  A
C612        H613   1.080       .  S
C615        C616   1.473       .  A
C615        C620   1.411       .  A
C616        C675   1.516       .  S
C616        C617   1.411       .  A
C617        C618   1.392       .  A
C617        H622   1.086       .  S
C618        C849   1.501       .  S
C618        C619   1.410       .  A
C619        C753   1.480       .  S
C619        C620   1.401       .  A
C620        H621   1.086       .  S
C623        C656   1.539       .  S
C623       C1588   1.480   1_455  A
C623        C628   1.422       .  A
C624       C1587   1.480       .  A
C624        C625   1.417       .  A
C625        C626   1.380       .  A
C625        H630   1.086       .  S
C626        C801   1.491       .  S
C626       C1591   1.407       .  A
C627        C902   1.492       .  S
C627       C1590   1.407   1_455  A
C627        C628   1.409       .  A
C628        H629   1.085       .  S
C631        C671   1.521       .  S
C631        C632   1.474       .  A
C631        C636   1.409       .  A
C632        C633   1.413       .  A
C633        C634   1.390       .  A
C633        H638   1.087       .  S
C634        C686   1.481       .  S
C634        C635   1.403       .  A
C635        C825   1.473       .  S
C635        C636   1.396       .  A
C636        H637   1.088       .  S
C639        C644   1.424       .  A
C640        C660   1.540       .  S
C640        C641   1.423       .  A
C641        C642   1.398       .  A
C641        H646   1.085       .  S
C642        C705   1.500       .  S
C643        C921   1.498       .  S
C643        C644   1.408       .  A
C644        H645   1.085       .  S
C647        C652   1.397       .  A
C648        C670   1.512       .  S
C648        C649   1.413       .  A
C649        C650   1.398       .  A
C649        H654   1.085       .  S
C650        C734   1.487       .  S
C651        C950   1.464       .  S
C651        C652   1.376       .  A
C652        H653   1.089       .  S
O655        C670   1.262       .  A
O655       Al663   1.925       .  S
C656        O666   1.277       .  A
C656        O657   1.271       .  A
O657       Al659   1.981       .  S
O658        C660   1.280       .  A
O658       Al659   1.955       .  S
Al659       O667   1.974       .  S
Al659       O669   1.957       .  S
Al659       O668   1.839       .  S
C660        O673   1.271       .  A
O661        C671   1.268       .  A
O661       Al663   1.898       .  S
O662        C675   1.271       .  A
O662       Al672   1.953       .  S
Al663       O676   1.938       .  S
Al663       O673   1.981       .  S
Al663       O668   1.846       .  S
O664        C671   1.274       .  A
O664       Al672   1.989       .  S
O665        C674   1.276       .  A
O665       Al672   1.977       .  S
O666       Al672   1.958       .  S
O667        C674   1.276       .  A
O668       Al672   1.847       .  S
O669        C670   1.272       .  A
C675        O676   1.271       .  A
C677        C678   1.416       .  A
C677        C682   1.400       .  A
C677        C691   1.423       .  S
C678        C683   1.496       .  S
C678        C679   1.405       .  A
C679        C680   1.402       .  A
C679        H698   1.083       .  S
C680        C681   1.409       .  A
C680        C692   1.438       .  S
C681        C682   1.381       .  A
C682        H697   1.072       .  S
C683        C684   1.407       .  A
C683        C688   1.416       .  A
C684        C685   1.409       .  A
C684        H699   1.081       .  S
C685        C686   1.405       .  A
C685        C689   1.441       .  S
C686        C687   1.388       .  A
C687        C688   1.384       .  A
C687        H700   1.086       .  S
C688        C690   1.427       .  S
C689        N693   1.158       .  T
C690        N694   1.153       .  T
C691        N696   1.150       .  T
C692        N695   1.156       .  T
C701        C702   1.421       .  A
C701        C706   1.410       .  A
C701        C715   1.438       .  S
C702        C707   1.509       .  S
C702        C703   1.404       .  A
C703        C704   1.400       .  A
C703        H722   1.082       .  S
C704        C705   1.403       .  A
C705        C706   1.403       .  A
C706        H721   1.084       .  S
C707        C708   1.407       .  A
C707        C712   1.412       .  A
C708        C709   1.407       .  A
C708        H723   1.079       .  S
C709        C710   1.413       .  A
C709        C713   1.434       .  S
C710        C711   1.402       .  A
C711        C712   1.401       .  A
C711        H724   1.085       .  S
C712        C714   1.432   1_565  S
C713        N717   1.156       .  T
C715        N720   1.156       .  T
C716        N719   1.154       .  T
C725        C726   1.408       .  A
C725        C730   1.398       .  A
C725        C739   1.441       .  S
C726        C731   1.507       .  S
C726        C727   1.403       .  A
C727        C728   1.407       .  A
C727        H746   1.077       .  S
C728        C729   1.415       .  A
C728        C740   1.432       .  S
C729        C730   1.410       .  A
C730        H745   1.076       .  S
C731        C732   1.410       .  A
C731        C736   1.419       .  A
C732        C733   1.405       .  A
C732        H747   1.084       .  S
C733        C734   1.411       .  A
C733        C737   1.444       .  S
C734        C735   1.398       .  A
C735        C736   1.397       .  A
C736        C738   1.445       .  S
C737        N741   1.157       .  T
C738        N742   1.157       .  T
C739        N744   1.156       .  T
C740        N743   1.154       .  T
C749        C750   1.433       .  A
C749        C754   1.395       .  A
C749        C763   1.439       .  S
C750        C755   1.515       .  S
C750        C751   1.409       .  A
C751        C752   1.403       .  A
C751        H770   1.079       .  S
C752        C753   1.405       .  A
C752        C764   1.439       .  S
C753        C754   1.388       .  A
C754        H769   1.087       .  S
C755        C756   1.386       .  A
C755        C760   1.417       .  A
C756        C757   1.382       .  A
C756        H771   1.059       .  S
C757        C758   1.422       .  A
C757        C761   1.446       .  S
C758        C759   1.410       .  A
C759        C760   1.417       .  A
C759        H772   1.077       .  S
C760        C762   1.435       .  S
C761        N765   1.157       .  T
C762        N766   1.154       .  T
C763        N768   1.156       .  T
C764        N767   1.155       .  T
C773        C774   1.411       .  A
C773        C778   1.402       .  A
C773        C787   1.432       .  S
C774        C779   1.513       .  S
C774        C775   1.409       .  A
C775        C776   1.406       .  A
C775        H794   1.084       .  S
C776        C777   1.413       .  A
C776        C788   1.444       .  S
C777        C778   1.403       .  A
C778        H793   1.086       .  S
C779        C780   1.407       .  A
C779        C784   1.423       .  A
C780        C781   1.401       .  A
C780        H795   1.076       .  S
C781        C782   1.407       .  A
C781        C785   1.444       .  S
C782        C783   1.398       .  A
C783        C784   1.400       .  A
C783       H1760   1.085       .  S
C784        C786   1.439       .  S
C785        N789   1.157       .  T
C786       N1754   1.158       .  T
C787        N792   1.153       .  T
C788        N791   1.157       .  T
N790       C1750   1.158       .  T
H796       C1747   1.085       .  S
C797        C798   1.433       .  A
C797        C802   1.389       .  A
C797        C811   1.418       .  S
C798        C803   1.545       .  S
C798        C799   1.421       .  A
C799        C800   1.418       .  A
C799        H818   1.074       .  S
C800        C801   1.406       .  A
C800        C812   1.441       .  S
C801        C802   1.374       .  A
C802        H817   1.089       .  S
C803        C804   1.412       .  A
C803        C808   1.436       .  A
C804        C805   1.407       .  A
C804        H819   1.067       .  S
C805        C806   1.394       .  A
C805        C809   1.444       .  S
C806        C807   1.402       .  A
C807        C808   1.416       .  A
C807        H820   1.085       .  S
C808        C810   1.439       .  S
C809        N813   1.157       .  T
C810       N1778   1.157       .  T
C811        N816   1.150       .  T
C812        N815   1.157       .  T
N814       C1774   1.157       .  T
C821        C822   1.420       .  A
C821        C826   1.380       .  A
C821        C835   1.430       .  S
C822        C827   1.495       .  S
C822        C823   1.411       .  A
C823        C824   1.404       .  A
C823        H842   1.085       .  S
C824        C825   1.405       .  A
C824        C836   1.436       .  S
C825        C826   1.386       .  A
C826        H841   1.088       .  S
C827        C828   1.402       .  A
C827        C832   1.405       .  A
C828        C829   1.400       .  A
C828        H843   1.083       .  S
C829        C830   1.412       .  A
C829        C833   1.442       .  S
C830        C831   1.408       .  A
C831        C832   1.408       .  A
C831        H844   1.076       .  S
C832        C834   1.439       .  S
C833        N837   1.156       .  T
C834        N838   1.155       .  T
C835        N840   1.154       .  T
C836        N839   1.156       .  T
C845        C846   1.436       .  A
C845        C850   1.406       .  A
C845        C859   1.441       .  S
C846        C851   1.533       .  S
C846        C847   1.411       .  A
C847        C848   1.404       .  A
C847        H866   1.074       .  S
C848        C849   1.400       .  A
C848        C860   1.433       .  S
C849        C850   1.396       .  A
C850        H865   1.085       .  S
C851        C852   1.425       .  A
C851        C856   1.412       .  A
C852        C853   1.419       .  A
C852        H867   1.082       .  S
C853        C854   1.408       .  A
C853        C857   1.440       .  S
C854        C855   1.411       .  A
C855        C856   1.403       .  A
C855        H868   1.086       .  S
C856        C858   1.436       .  S
C857        N861   1.156       .  T
C858        N862   1.155       .  T
C859        N864   1.158       .  T
C860        N863   1.153       .  T
C869        C870   1.410       .  A
C869        C874   1.388       .  A
C869        C883   1.419       .  S
C870        C875   1.497       .  S
C870        C871   1.407       .  A
C871        C872   1.410       .  A
C871        H890   1.081       .  S
C872        C873   1.405       .  A
C872        C884   1.440       .  S
C873        C874   1.380       .  A
C874        H889   1.084       .  S
C875        C876   1.399       .  A
C875        C880   1.400       .  A
C876        C877   1.407       .  A
C876        H891   1.080       .  S
C877        C878   1.413       .  A
C877       C1845   1.442       .  S
C878        C879   1.412       .  A
C879        C880   1.412       .  A
C879        H892   1.084       .  S
C880        C882   1.433       .  S
C881       C1841   1.442       .  S
C881        N885   1.157       .  T
C882        N886   1.154       .  T
C883        N888   1.149       .  T
C884        N887   1.156       .  T
C893        C894   1.411       .  A
C893        C898   1.395       .  A
C893        C907   1.418       .  S
C894        C899   1.493       .  S
C894        C895   1.396       .  A
C895        C896   1.385       .  A
C895        H914   1.063       .  S
C896        C897   1.401       .  A
C896        C908   1.438       .  S
C897        C898   1.391       .  A
C898        H913   1.081       .  S
C899        C900   1.403       .  A
C899        C904   1.413       .  A
C900        C901   1.411       .  A
C900        H915   1.083       .  S
C901        C902   1.416       .  A
C901        C905   1.443       .  S
C902        C903   1.399       .  A
C903        C904   1.397       .  A
C903        H916   1.085       .  S
C904        C906   1.440       .  S
C905        N909   1.157       .  T
C906        N910   1.155       .  T
C907        N912   1.151   1_455  T
C908        N911   1.153       .  T
C917        C918   1.416       .  A
C917        C922   1.405       .  A
C917        C931   1.439       .  S
C918        C923   1.497       .  S
C918        C919   1.406       .  A
C919        C920   1.409       .  A
C919        H938   1.082       .  S
C920        C921   1.411       .  A
C920        C932   1.438       .  S
C921        C922   1.401       .  A
C922        H937   1.084       .  S
C923        C924   1.405       .  A
C923        C928   1.406       .  A
C924        C925   1.410       .  A
C924        H939   1.082       .  S
C925        C926   1.402       .  A
C925        C929   1.433       .  S
C926        C927   1.388       .  A
C927        C928   1.389       .  A
C927        H940   1.085       .  S
C928        C930   1.414       .  S
C929        N933   1.154       .  T
C930        N934   1.149       .  T
C931        N936   1.156       .  T
C932        N935   1.155       .  T
C941        C942   1.416       .  A
C941        C946   1.408       .  A
C941        C955   1.445       .  S
C942        C947   1.516       .  S
C942        C943   1.396       .  A
C943        C944   1.386       .  A
C943        H962   1.070       .  S
C944        C945   1.427       .  A
C944        C956   1.442       .  S
C945        C946   1.412       .  A
C946        H961   1.069       .  S
C947        C948   1.411       .  A
C947        C952   1.428       .  A
C948        C949   1.390       .  A
C948        H963   1.075       .  S
C949        C950   1.395       .  A
C949        C953   1.437       .  S
C950        C951   1.391       .  A
C951        C952   1.393       .  A
C952        C954   1.441       .  S
C953        N957   1.154       .  T
C954        N958   1.156       .  T
C955        N960   1.158       .  T
C956        N959   1.155       .  T
O965        C980   1.276       .  A
O965       Al973   1.999       .  S
C966        O976   1.270       .  A
C966        O967   1.273       .  A
C966       C1129   1.499       .  S
O967       Al969   1.932       .  S
O968        C970   1.277       .  A
O968       Al969   1.988       .  S
Al969       O977   2.012       .  S
Al969       O979   1.897       .  S
Al969       O978   1.832       .  S
C970        O983   1.266       .  A
C970       C1090   1.534       .  S
O971        C981   1.279       .  A
O971       Al973   1.978       .  S
O972        C985   1.267       .  A
O972       Al982   1.977       .  S
Al973       O986   1.892       .  S
Al973       O983   1.935       .  S
Al973       O978   1.837       .  S
O974        C981   1.274       .  A
O974       Al982   1.952       .  S
O975        C984   1.278       .  A
O975       Al982   1.953       .  S
O976       Al982   1.947       .  S
O977        C984   1.276       .  A
O978       Al982   1.840       .  S
O979        C980   1.275       .  A
C980       C1106   1.526       .  S
C981       C1097   1.527       .  S
C984       C1121   1.549       .  S
C985        O986   1.267       .  A
C985       C1114   1.518       .  S
N987        C992   1.351       .  A
N987        C991   1.355       .  A
N987       H1019   1.044       .  S
N988        C995   1.327       .  A
N988        C996   1.335   1_556  A
N989        C994   1.345       .  A
N989        C993   1.345       .  A
N989       H1020   1.040       .  S
N990        C997   1.336   1_554  A
N990        C998   1.347       .  A
C991        C999   1.386       .  A
C991       C1007   1.415       .  A
C992       C1008   1.412       .  A
C992       C1000   1.381       .  A
C993       C1001   1.392       .  A
C993       C1010   1.411       .  A
C994       C1009   1.406       .  A
C994       C1002   1.383       .  A
C995       C1007   1.395       .  A
C995       C1003   1.388       .  A
C996       C1010   1.401       .  A
C996       C1004   1.386       .  A
C997       C1005   1.381       .  A
C997       C1008   1.402       .  A
C998       C1006   1.393       .  A
C998       C1009   1.429       .  A
C999       C1000   1.366       .  A
C999       H1011   1.082       .  S
C1000      H1012   1.075       .  S
C1001      C1002   1.370       .  A
C1001      H1013   1.083       .  S
C1002      H1014   1.083       .  S
C1003      C1004   1.390   1_556  A
C1003      H1015   1.082       .  S
C1004      H1016   1.081       .  S
C1005      C1006   1.387   1_556  A
C1005      H1017   1.083       .  S
C1006      H1018   1.071       .  S
C1007      C1379   1.473       .  S
C1008      C1408   1.479       .  S
C1009      C1427   1.517       .  S
C1010      C1355   1.473       .  S
N1021      C1026   1.353       .  A
N1021      C1507   1.353       .  A
N1021      H1053   1.040       .  S
N1022      C1029   1.347       .  A
N1022      C1030   1.347   1_556  A
N1023      C1028   1.349       .  A
N1023      C1509   1.347       .  A
N1023      H1054   1.042       .  S
N1024      C1031   1.349       .  A
N1024      C1032   1.357   1_556  A
C1025      N1503   1.353   1_545  A
C1025      C1033   1.383   1_545  A
C1025      C1041   1.416       .  A
C1026      C1042   1.417       .  A
C1026      C1034   1.391       .  A
C1027      N1505   1.347   1_545  A
C1027      C1035   1.384       .  A
C1027      C1044   1.413       .  A
C1028      C1043   1.399       .  A
C1028      C1036   1.379       .  A
C1029      C1041   1.417       .  A
C1029      C1037   1.386       .  A
C1030      C1044   1.414       .  A
C1030      C1038   1.385       .  A
C1031      C1039   1.390       .  A
C1031      C1042   1.426       .  A
C1032      C1040   1.385       .  A
C1032      C1043   1.423       .  A
C1033      C1516   1.365       .  A
C1033      H1045   1.079   1_565  S
C1034      C1515   1.365       .  A
C1034      H1046   1.080       .  S
C1035      C1518   1.361   1_545  A
C1035      H1047   1.068       .  S
C1036      C1517   1.360       .  A
C1036      H1048   1.080       .  S
C1037      C1038   1.390   1_556  A
C1037      H1049   1.077       .  S
C1038      H1050   1.081       .  S
C1039      C1040   1.396   1_556  A
C1039      H1051   1.082       .  S
C1040      H1052   1.082       .  S
C1041      C1288   1.498       .  S
C1042      C1312   1.498       .  S
C1043      C1336   1.518       .  S
C1044      C1259   1.491       .  S
N1055      C1060   1.345       .  A
N1055      H1087   1.045       .  S
N1056      C1063   1.341   1_556  A
N1056      C1064   1.339       .  A
N1057      C1062   1.345       .  A
N1057      H1088   1.044       .  S
N1058      C1065   1.344   1_556  A
N1058      C1066   1.331       .  A
C1059      C1067   1.383       .  A
C1059      C1075   1.405       .  A
C1060      C1076   1.400       .  A
C1060      C1068   1.383       .  A
C1061      C1069   1.395       .  A
C1061      C1078   1.433       .  A
C1062      C1077   1.409       .  A
C1062      C1070   1.383       .  A
C1063      C1075   1.424       .  A
C1063      C1071   1.387       .  A
C1064      C1078   1.426       .  A
C1064      C1072   1.392       .  A
C1065      C1073   1.392       .  A
C1065      C1076   1.423       .  A
C1066      C1074   1.386       .  A
C1066      C1077   1.407       .  A
C1067      H1079   1.071       .  S
C1068      H1080   1.083       .  S
C1069      H1081   1.075       .  S
C1070      H1082   1.083       .  S
C1071      C1072   1.397   1_554  A
C1071      H1083   1.082       .  S
C1072      H1084   1.078       .  S
C1073      C1074   1.403   1_554  A
C1073      H1085   1.078       .  S
C1074      H1086   1.081       .  S
C1075      C1211   1.511       .  S
C1076      C1240   1.508       .  S
C1077      C1163   1.487       .  S
C1078      C1192   1.509       .  S
C1089      C1156   1.541       .  S
C1089      C1094   1.423       .  A
C1090      C1091   1.413       .  A
C1091      C1092   1.399       .  A
C1091      H1096   1.084       .  S
C1092      C1264   1.486       .  S
C1093      C1360   1.507       .  S
C1093      C1094   1.406       .  A
C1094      H1095   1.080       .  S
C1097      C1098   1.473       .  A
C1097      C1102   1.411       .  A
C1098      C1157   1.516       .  S
C1098      C1099   1.411       .  A
C1099      C1100   1.392       .  A
C1099      H1104   1.086       .  S
C1100      C1331   1.501       .  S
C1100      C1101   1.410       .  A
C1101      C1235   1.480       .  S
C1101      C1102   1.401       .  A
C1102      H1103   1.086       .  S
C1105      C1138   1.539       .  S
C1105      C1110   1.422       .  A
C1106      C1107   1.417       .  A
C1107      C1108   1.381       .  A
C1107      H1112   1.086       .  S
C1108      C1283   1.491       .  S
C1109      C1384   1.492       .  S
C1109      C1110   1.409       .  A
C1110      H1111   1.085       .  S
C1113      C1153   1.521       .  S
C1113      C1114   1.474       .  A
C1113      C1118   1.409       .  A
C1114      C1115   1.413       .  A
C1115      C1116   1.390       .  A
C1115      H1120   1.087       .  S
C1116      C1168   1.481       .  S
C1116      C1117   1.403       .  A
C1117      C1307   1.473       .  S
C1117      C1118   1.396       .  A
C1118      H1119   1.088       .  S
C1121      C1604   1.489   1_545  A
C1121      C1126   1.424       .  A
C1122      C1142   1.540       .  S
C1122      C1603   1.489       .  A
C1122      C1123   1.423       .  A
C1123      C1124   1.398       .  A
C1123      H1128   1.085       .  S
C1124      C1187   1.500       .  S
C1124      C1607   1.405       .  A
C1125      C1403   1.498       .  S
C1125      C1606   1.405   1_545  A
C1125      C1126   1.408       .  A
C1126      H1127   1.085       .  S
C1129      C1612   1.469   1_545  A
C1129      C1134   1.397       .  A
C1130      C1152   1.511       .  S
C1130      C1611   1.469       .  A
C1130      C1131   1.413       .  A
C1131      C1132   1.398       .  A
C1131      H1136   1.085       .  S
C1132      C1216   1.487       .  S
C1132      C1615   1.404       .  A
C1133      C1432   1.464       .  S
C1133      C1614   1.404   1_545  A
C1133      C1134   1.376       .  A
C1134      H1135   1.089       .  S
O1137      C1152   1.262       .  A
O1137     Al1145   1.925       .  S
C1138      O1148   1.277       .  A
C1138      O1139   1.271       .  A
O1139     Al1141   1.981       .  S
O1140      C1142   1.280       .  A
O1140     Al1141   1.955       .  S
Al1141     O1149   1.974       .  S
Al1141     O1151   1.956       .  S
Al1141     O1150   1.839       .  S
C1142      O1155   1.271       .  A
O1143      C1153   1.268       .  A
O1143     Al1145   1.898       .  S
O1144      C1157   1.271       .  A
O1144     Al1154   1.953       .  S
Al1145     O1158   1.938       .  S
Al1145     O1155   1.981       .  S
Al1145     O1150   1.846       .  S
O1146      C1153   1.274       .  A
O1146     Al1154   1.989       .  S
O1147      C1156   1.276       .  A
O1147     Al1154   1.977       .  S
O1148     Al1154   1.958       .  S
O1149      C1156   1.276       .  A
O1150     Al1154   1.847       .  S
O1151      C1152   1.272       .  A
C1157      O1158   1.271       .  A
C1159      C1160   1.416       .  A
C1159      C1164   1.400       .  A
C1159      C1173   1.423       .  S
C1160      C1165   1.496       .  S
C1160      C1161   1.406       .  A
C1161      C1162   1.402       .  A
C1161      H1180   1.083       .  S
C1162      C1163   1.409       .  A
C1162      C1174   1.438       .  S
C1163      C1164   1.381       .  A
C1164      H1179   1.072       .  S
C1165      C1166   1.407       .  A
C1165      C1170   1.416       .  A
C1166      C1167   1.409       .  A
C1166      H1181   1.081       .  S
C1167      C1168   1.405       .  A
C1167      C1171   1.441       .  S
C1168      C1169   1.388       .  A
C1169      C1170   1.384       .  A
C1169      H1182   1.086       .  S
C1170      C1172   1.427       .  S
C1171      N1175   1.158       .  T
C1172      N1176   1.153       .  T
C1173      N1178   1.150       .  T
C1174      N1177   1.156       .  T
C1183      C1184   1.421       .  A
C1183      C1188   1.410       .  A
C1183      C1197   1.438       .  S
C1184      C1189   1.509       .  S
C1184      C1185   1.404       .  A
C1185      C1186   1.401       .  A
C1185      H1204   1.082       .  S
C1186      C1187   1.403       .  A
C1186      C1680   1.434       .  S
C1187      C1188   1.403       .  A
C1188      H1203   1.084       .  S
C1189      C1190   1.407       .  A
C1189      C1194   1.412       .  A
C1190      C1191   1.407       .  A
C1190      H1205   1.079       .  S
C1191      C1192   1.413       .  A
C1191      C1195   1.434       .  S
C1192      C1193   1.402       .  A
C1193      C1194   1.401       .  A
C1193      H1206   1.085       .  S
C1194      C1196   1.433       .  S
C1195      N1199   1.156       .  T
C1196      N1682   1.155       .  T
C1197      N1202   1.156       .  T
C1198      C1668   1.435       .  S
C1198      N1201   1.154       .  T
N1200      C1678   1.155       .  T
C1207      C1208   1.408       .  A
C1207      C1212   1.398       .  A
C1207      C1221   1.441       .  S
C1208      C1213   1.506       .  S
C1208      C1209   1.403       .  A
C1209      C1210   1.407       .  A
C1209      H1228   1.077       .  S
C1210      C1211   1.415       .  A
C1210      C1222   1.432       .  S
C1211      C1212   1.410       .  A
C1212      H1227   1.076       .  S
C1213      C1214   1.410       .  A
C1213      C1218   1.419       .  A
C1214      C1215   1.405       .  A
C1214      H1229   1.084       .  S
C1215      C1216   1.411       .  A
C1215      C1219   1.444       .  S
C1216      C1217   1.398       .  A
C1217      C1218   1.397       .  A
C1217      H1712   1.085       .  S
C1218      C1220   1.445       .  S
C1219      N1223   1.157       .  T
C1220      N1224   1.157       .  T
C1221      N1226   1.156       .  T
C1222      N1225   1.154       .  T
H1230      C1699   1.085       .  S
C1231      C1232   1.433       .  A
C1231      C1236   1.395       .  A
C1231      C1245   1.439       .  S
C1232      C1237   1.516       .  S
C1232      C1233   1.410       .  A
C1233      C1234   1.403       .  A
C1233      H1252   1.079       .  S
C1234      C1235   1.405       .  A
C1234      C1246   1.439       .  S
C1235      C1236   1.388       .  A
C1236      H1251   1.087       .  S
C1237      C1238   1.386       .  A
C1237      C1242   1.418       .  A
C1238      C1239   1.382       .  A
C1238      H1253   1.059       .  S
C1239      C1240   1.422       .  A
C1239      C1243   1.446       .  S
C1240      C1241   1.410       .  A
C1241      C1242   1.417       .  A
C1241      H1254   1.077       .  S
C1242      C1244   1.435       .  S
C1243      N1247   1.157       .  T
C1244      N1248   1.154       .  T
C1245      N1250   1.156       .  T
C1246      N1249   1.155       .  T
C1255      C1256   1.411       .  A
C1255      C1260   1.402       .  A
C1255      C1269   1.432       .  S
C1256      C1261   1.513       .  S
C1256      C1257   1.409       .  A
C1257      C1258   1.406       .  A
C1257      H1276   1.084       .  S
C1258      C1259   1.413       .  A
C1258      C1270   1.444       .  S
C1259      C1260   1.403       .  A
C1260      H1275   1.086       .  S
C1261      C1262   1.407       .  A
C1261      C1266   1.423       .  A
C1262      C1263   1.401       .  A
C1262      H1277   1.076       .  S
C1263      C1264   1.407       .  A
C1263      C1267   1.444       .  S
C1264      C1265   1.398       .  A
C1265      C1266   1.400       .  A
C1266      C1268   1.439       .  S
C1267      N1271   1.157       .  T
C1269      N1274   1.153       .  T
C1270      N1273   1.157       .  T
C1279      C1280   1.433       .  A
C1279      C1284   1.390       .  A
C1279      C1293   1.419       .  S
C1280      C1285   1.545       .  S
C1280      C1281   1.421       .  A
C1281      C1282   1.418       .  A
C1281      H1300   1.074       .  S
C1282      C1283   1.406       .  A
C1282      C1294   1.441       .  S
C1283      C1284   1.374       .  A
C1284      H1299   1.089       .  S
C1285      C1286   1.412       .  A
C1285      C1290   1.436       .  A
C1286      C1287   1.407       .  A
C1286      H1301   1.067       .  S
C1287      C1288   1.394       .  A
C1287      C1291   1.444       .  S
C1288      C1289   1.402       .  A
C1289      C1290   1.416       .  A
C1289      H1302   1.085       .  S
C1290      C1292   1.439       .  S
C1291      N1295   1.157       .  T
C1293      N1298   1.151       .  T
C1294      N1297   1.157       .  T
C1303      C1304   1.420       .  A
C1303      C1308   1.380       .  A
C1303      C1317   1.430       .  S
C1304      C1309   1.495       .  S
C1304      C1305   1.411       .  A
C1305      C1306   1.404       .  A
C1305      H1324   1.085       .  S
C1306      C1307   1.405       .  A
C1306      C1318   1.436       .  S
C1307      C1308   1.386       .  A
C1308      H1323   1.088       .  S
C1309      C1310   1.402       .  A
C1309      C1314   1.405       .  A
C1310      C1311   1.400       .  A
C1310      H1325   1.083       .  S
C1311      C1312   1.413       .  A
C1311      C1315   1.442       .  S
C1312      C1313   1.408       .  A
C1313      C1314   1.408       .  A
C1313      H1326   1.076       .  S
C1314      C1316   1.439       .  S
C1315      N1319   1.156       .  T
C1316      N1320   1.155       .  T
C1317      N1322   1.154       .  T
C1318      N1321   1.156       .  T
C1327      C1328   1.435       .  A
C1327      C1332   1.405       .  A
C1327      C1341   1.441       .  S
C1328      C1333   1.532       .  S
C1328      C1329   1.411       .  A
C1329      C1330   1.404       .  A
C1329      H1348   1.074       .  S
C1330      C1331   1.401       .  A
C1330      C1342   1.433       .  S
C1331      C1332   1.396       .  A
C1332      H1347   1.085       .  S
C1333      C1334   1.425       .  A
C1333      C1338   1.412       .  A
C1334      C1335   1.419       .  A
C1334      H1349   1.082       .  S
C1335      C1336   1.408       .  A
C1335      C1339   1.440       .  S
C1336      C1337   1.411       .  A
C1337      C1338   1.403       .  A
C1337      H1350   1.086       .  S
C1338      C1340   1.436       .  S
C1339      N1343   1.156       .  T
C1340      N1344   1.155       .  T
C1341      N1346   1.158       .  T
C1342      N1345   1.154       .  T
C1351      C1352   1.410       .  A
C1351      C1356   1.388       .  A
C1351      C1365   1.419       .  S
C1352      C1357   1.497       .  S
C1352      C1353   1.407       .  A
C1353      C1354   1.410       .  A
C1353      H1372   1.081       .  S
C1354      C1355   1.405       .  A
C1354      C1366   1.440       .  S
C1355      C1356   1.380       .  A
C1356      H1371   1.084       .  S
C1357      C1358   1.399       .  A
C1357      C1362   1.400       .  A
C1358      C1359   1.407       .  A
C1358      H1373   1.080       .  S
C1359      C1360   1.413       .  A
C1360      C1361   1.412       .  A
C1361      C1362   1.412       .  A
C1361      H1374   1.084       .  S
C1362      C1364   1.433       .  S
C1363      N1367   1.157       .  T
C1364      N1368   1.154       .  T
C1365      N1370   1.149       .  T
C1366      N1369   1.156       .  T
C1375      C1376   1.411       .  A
C1375      C1380   1.395       .  A
C1375      C1389   1.418       .  S
C1376      C1381   1.493       .  S
C1376      C1377   1.396       .  A
C1377      C1378   1.385       .  A
C1377      H1396   1.063       .  S
C1378      C1379   1.401       .  A
C1378      C1390   1.438       .  S
C1379      C1380   1.390       .  A
C1380      H1395   1.081       .  S
C1381      C1382   1.403       .  A
C1381      C1386   1.413       .  A
C1382      C1383   1.411       .  A
C1382      H1397   1.083       .  S
C1383      C1384   1.416       .  A
C1383      C1387   1.443       .  S
C1384      C1385   1.399       .  A
C1385      C1386   1.397       .  A
C1385      H1398   1.085       .  S
C1386      C1388   1.440       .  S
C1387      N1391   1.157       .  T
C1388      N1392   1.155       .  T
C1389      N1394   1.151       .  T
C1390      N1393   1.153       .  T
C1399      C1400   1.416       .  A
C1399      C1404   1.405       .  A
C1399      C1413   1.439       .  S
C1400      C1405   1.497       .  S
C1400      C1401   1.406       .  A
C1401      C1402   1.409       .  A
C1401      H1420   1.082       .  S
C1402      C1403   1.411       .  A
C1402      C1414   1.438       .  S
C1403      C1404   1.401       .  A
C1404      H1419   1.084       .  S
C1405      C1406   1.405       .  A
C1405      C1410   1.406       .  A
C1406      C1407   1.410       .  A
C1406      H1421   1.082   1_545  S
C1407      C1408   1.402       .  A
C1407      C1411   1.433       .  S
C1408      C1409   1.389       .  A
C1409      C1410   1.389       .  A
C1409      H1422   1.085       .  S
C1410      C1412   1.414       .  S
C1411      N1415   1.154   1_545  T
C1412      N1416   1.149       .  T
C1413      N1418   1.156       .  T
C1414      N1417   1.155       .  T
C1423      C1424   1.416       .  A
C1423      C1428   1.408       .  A
C1423      C1437   1.445       .  S
C1424      C1429   1.516       .  S
C1424      C1425   1.396       .  A
C1425      C1426   1.386       .  A
C1425      H1444   1.070       .  S
C1426      C1427   1.428       .  A
C1426      C1438   1.442   1_545  S
C1427      C1428   1.412       .  A
C1428      H1443   1.069       .  S
C1429      C1430   1.411       .  A
C1429      C1434   1.428       .  A
C1430      C1431   1.390       .  A
C1430      H1445   1.075       .  S
C1431      C1432   1.395       .  A
C1431      C1435   1.437       .  S
C1432      C1433   1.391       .  A
C1433      C1434   1.393       .  A
C1433      H1928   1.085       .  S
C1434      C1436   1.441       .  S
C1435      N1439   1.154       .  T
C1436      N1440   1.156       .  T
C1437      N1442   1.158       .  T
C1438      N1441   1.155       .  T
H1446      C1915   1.085       .  S
O1447      C1462   1.277       .  A
O1447     Al1455   2.000       .  S
C1448      O1458   1.270       .  A
C1448      O1449   1.273       .  A
C1448      C1611   1.499       .  S
O1449     Al1451   1.932       .  S
O1450      C1452   1.277       .  A
O1450     Al1451   1.989       .  S
Al1451     O1459   2.012       .  S
Al1451     O1461   1.897       .  S
Al1451     O1460   1.832       .  S
C1452      O1465   1.266       .  A
C1452      C1572   1.534       .  S
O1453      C1463   1.279       .  A
O1453     Al1455   1.978       .  S
O1454      C1467   1.268       .  A
O1454     Al1464   1.978       .  S
Al1455     O1468   1.892       .  S
Al1455     O1465   1.935       .  S
Al1455     O1460   1.836       .  S
O1456      C1463   1.274       .  A
O1456     Al1464   1.953       .  S
O1457      C1466   1.279       .  A
O1457     Al1464   1.954       .  S
O1458     Al1464   1.947       .  S
O1459      C1466   1.276       .  A
O1460     Al1464   1.840       .  S
O1461      C1462   1.274       .  A
C1462      C1588   1.527       .  S
C1463      C1579   1.528       .  S
C1466      C1603   1.549       .  S
C1467      O1468   1.267       .  A
C1467      C1596   1.518       .  S
N1469      C1474   1.351       .  A
N1469      C1473   1.355       .  A
N1469      H1501   1.044       .  S
N1470      C1477   1.326       .  A
N1470      C1478   1.335   1_556  A
N1471      C1476   1.344       .  A
N1471      C1475   1.345       .  A
N1471      H1502   1.040       .  S
N1472      C1479   1.336   1_554  A
N1472      C1480   1.347       .  A
C1473      C1481   1.387       .  A
C1473      C1489   1.416       .  A
C1474      C1490   1.412       .  A
C1474      C1482   1.381       .  A
C1475      C1483   1.392       .  A
C1475      C1492   1.410       .  A
C1476      C1491   1.406       .  A
C1476      C1484   1.383       .  A
C1477      C1489   1.395       .  A
C1477      C1485   1.388       .  A
C1478      C1492   1.401       .  A
C1478      C1486   1.386       .  A
C1479      C1487   1.381       .  A
C1479      C1490   1.402       .  A
C1480      C1488   1.393       .  A
C1480      C1491   1.430       .  A
C1481      C1482   1.366       .  A
C1481      H1493   1.082       .  S
C1482      H1494   1.075       .  S
C1483      C1484   1.369       .  A
C1483      H1495   1.083       .  S
C1484      H1496   1.083       .  S
C1485      C1486   1.390   1_556  A
C1485      H1497   1.082       .  S
C1486      H1498   1.081       .  S
C1487      C1488   1.387   1_556  A
C1487      H1499   1.083       .  S
C1488      H1500   1.071       .  S
C1489      C1861   1.473       .  S
C1490      C1890   1.479       .  S
C1491      C1909   1.518       .  S
C1492      C1837   1.472       .  S
N1503      C1508   1.353       .  A
N1503      H1535   1.040       .  S
N1504      C1511   1.347       .  A
N1504      C1512   1.347   1_556  A
N1505      C1510   1.349       .  A
N1505      H1536   1.042       .  S
N1506      C1513   1.349       .  A
N1506      C1514   1.357   1_556  A
C1507      C1515   1.383       .  A
C1507      C1523   1.416       .  A
C1508      C1524   1.416       .  A
C1508      C1516   1.390       .  A
C1509      C1517   1.384       .  A
C1509      C1526   1.412       .  A
C1510      C1525   1.399       .  A
C1510      C1518   1.379       .  A
C1511      C1523   1.417       .  A
C1511      C1519   1.386       .  A
C1512      C1526   1.414       .  A
C1512      C1520   1.385       .  A
C1513      C1521   1.390       .  A
C1513      C1524   1.425       .  A
C1514      C1522   1.385       .  A
C1514      C1525   1.423       .  A
C1515      H1527   1.079       .  S
C1516      H1528   1.080       .  S
C1517      H1529   1.068       .  S
C1518      H1530   1.080       .  S
C1519      C1520   1.390   1_556  A
C1519      H1531   1.077       .  S
C1520      H1532   1.081       .  S
C1521      C1522   1.396   1_556  A
C1521      H1533   1.082       .  S
C1522      H1534   1.082       .  S
C1523      C1770   1.498       .  S
C1524      C1794   1.498       .  S
C1525      C1818   1.518       .  S
C1526      C1741   1.491       .  S
N1537      C1542   1.345       .  A
N1537      H1569   1.045       .  S
N1538      C1545   1.340   1_556  A
N1538      C1546   1.339       .  A
N1539      C1544   1.345       .  A
N1539      H1570   1.044       .  S
N1540      C1547   1.343   1_556  A
N1540      C1548   1.331       .  A
C1541      C1549   1.383       .  A
C1541      C1557   1.406       .  A
C1542      C1558   1.399       .  A
C1542      C1550   1.383       .  A
C1543      C1551   1.395       .  A
C1543      C1560   1.433       .  A
C1544      C1559   1.409       .  A
C1544      C1552   1.383       .  A
C1545      C1557   1.424       .  A
C1545      C1553   1.387       .  A
C1546      C1560   1.426       .  A
C1546      C1554   1.392       .  A
C1547      C1555   1.392       .  A
C1547      C1558   1.422       .  A
C1548      C1556   1.386       .  A
C1548      C1559   1.407       .  A
C1549      H1561   1.071       .  S
C1550      H1562   1.083       .  S
C1551      H1563   1.075       .  S
C1552      H1564   1.083       .  S
C1553      C1554   1.397   1_554  A
C1553      H1565   1.082       .  S
C1554      H1566   1.079       .  S
C1555      C1556   1.402   1_554  A
C1555      H1567   1.078       .  S
C1556      H1568   1.081       .  S
C1557      C1693   1.510       .  S
C1558      C1722   1.507       .  S
C1559      C1645   1.486       .  S
C1560      C1674   1.508       .  S
C1571      C1638   1.541       .  S
C1571      C1576   1.422       .  A
C1572      C1573   1.413       .  A
C1573      C1574   1.399       .  A
C1573      H1578   1.084       .  S
C1574      C1746   1.485       .  S
C1575      C1842   1.507       .  S
C1575      C1576   1.406       .  A
C1576      H1577   1.080       .  S
C1579      C1580   1.474       .  A
C1579      C1584   1.411       .  A
C1580      C1639   1.517       .  S
C1580      C1581   1.412       .  A
C1581      C1582   1.393       .  A
C1581      H1586   1.086       .  S
C1582      C1813   1.501       .  S
C1582      C1583   1.410       .  A
C1583      C1717   1.480       .  S
C1583      C1584   1.401       .  A
C1584      H1585   1.086       .  S
C1587      C1620   1.539       .  S
C1587      C1592   1.422       .  A
C1588      C1589   1.418       .  A
C1589      C1590   1.381       .  A
C1589      H1594   1.086       .  S
C1590      C1765   1.492       .  S
C1591      C1866   1.492       .  S
C1591      C1592   1.409       .  A
C1592      H1593   1.085       .  S
C1595      C1635   1.522       .  S
C1595      C1596   1.474       .  A
C1595      C1600   1.409       .  A
C1596      C1597   1.413       .  A
C1597      C1598   1.390       .  A
C1597      H1602   1.087       .  S
C1598      C1650   1.481       .  S
C1598      C1599   1.403       .  A
C1599      C1789   1.472       .  S
C1599      C1600   1.396       .  A
C1600      H1601   1.088       .  S
C1603      C1608   1.423       .  A
C1604      C1624   1.541       .  S
C1604      C1605   1.423       .  A
C1605      C1606   1.398       .  A
C1605      H1610   1.085       .  S
C1606      C1669   1.500       .  S
C1607      C1885   1.498       .  S
C1607      C1608   1.408       .  A
C1608      H1609   1.085       .  S
C1611      C1616   1.397       .  A
C1612      C1634   1.512       .  S
C1612      C1613   1.413       .  A
C1613      C1614   1.399       .  A
C1613      H1618   1.085       .  S
C1614      C1698   1.487       .  S
C1615      C1914   1.464       .  S
C1615      C1616   1.376       .  A
C1616      H1617   1.089       .  S
O1619      C1634   1.263       .  A
O1619     Al1627   1.926       .  S
C1620      O1630   1.277       .  A
C1620      O1621   1.271       .  A
O1621     Al1623   1.981       .  S
O1622      C1624   1.280       .  A
O1622     Al1623   1.955       .  S
Al1623     O1631   1.974       .  S
Al1623     O1633   1.957       .  S
Al1623     O1632   1.839       .  S
C1624      O1637   1.271       .  A
O1625      C1635   1.268       .  A
O1625     Al1627   1.899       .  S
O1626      C1639   1.271       .  A
O1626     Al1636   1.953       .  S
Al1627     O1640   1.939       .  S
Al1627     O1637   1.982       .  S
Al1627     O1632   1.846       .  S
O1628      C1635   1.274       .  A
O1628     Al1636   1.989       .  S
O1629      C1638   1.276       .  A
O1629     Al1636   1.977       .  S
O1630     Al1636   1.958       .  S
O1631      C1638   1.276       .  A
O1632     Al1636   1.847       .  S
O1633      C1634   1.272       .  A
C1639      O1640   1.271       .  A
C1641      C1642   1.416       .  A
C1641      C1646   1.400       .  A
C1641      C1655   1.423       .  S
C1642      C1647   1.496       .  S
C1642      C1643   1.406       .  A
C1643      C1644   1.402       .  A
C1643      H1662   1.083       .  S
C1644      C1645   1.409       .  A
C1644      C1656   1.438       .  S
C1645      C1646   1.381       .  A
C1646      H1661   1.071       .  S
C1647      C1648   1.407       .  A
C1647      C1652   1.416       .  A
C1648      C1649   1.409       .  A
C1648      H1663   1.081       .  S
C1649      C1650   1.405       .  A
C1649      C1653   1.441       .  S
C1650      C1651   1.388       .  A
C1651      C1652   1.384       .  A
C1651      H1664   1.086       .  S
C1652      C1654   1.427       .  S
C1653      N1657   1.158       .  T
C1654      N1658   1.153       .  T
C1655      N1660   1.150       .  T
C1656      N1659   1.156       .  T
C1665      C1666   1.421       .  A
C1665      C1670   1.410       .  A
C1665      C1679   1.438       .  S
C1666      C1671   1.509       .  S
C1666      C1667   1.404       .  A
C1667      C1668   1.401       .  A
C1667      H1686   1.082       .  S
C1668      C1669   1.403       .  A
C1669      C1670   1.403       .  A
C1670      H1685   1.084       .  S
C1671      C1672   1.407       .  A
C1671      C1676   1.412       .  A
C1672      C1673   1.407       .  A
C1672      H1687   1.079       .  S
C1673      C1674   1.413       .  A
C1673      C1677   1.434       .  S
C1674      C1675   1.402       .  A
C1675      C1676   1.401       .  A
C1675      H1688   1.085       .  S
C1676      C1678   1.432   1_565  S
C1677      N1681   1.156       .  T
C1679      N1684   1.156       .  T
C1680      N1683   1.154       .  T
C1689      C1690   1.408       .  A
C1689      C1694   1.398       .  A
C1689      C1703   1.441       .  S
C1690      C1695   1.506       .  S
C1690      C1691   1.403       .  A
C1691      C1692   1.407       .  A
C1691      H1710   1.077       .  S
C1692      C1693   1.415       .  A
C1692      C1704   1.432       .  S
C1693      C1694   1.410       .  A
C1694      H1709   1.076       .  S
C1695      C1696   1.410       .  A
C1695      C1700   1.419       .  A
C1696      C1697   1.405       .  A
C1696      H1711   1.084       .  S
C1697      C1698   1.411       .  A
C1697      C1701   1.444       .  S
C1698      C1699   1.398       .  A
C1699      C1700   1.397       .  A
C1700      C1702   1.445       .  S
C1701      N1705   1.157       .  T
C1702      N1706   1.157       .  T
C1703      N1708   1.156       .  T
C1704      N1707   1.155       .  T
C1713      C1714   1.433       .  A
C1713      C1718   1.395       .  A
C1713      C1727   1.439       .  S
C1714      C1719   1.516       .  S
C1714      C1715   1.410       .  A
C1715      C1716   1.403       .  A
C1715      H1734   1.079       .  S
C1716      C1717   1.405       .  A
C1716      C1728   1.439       .  S
C1717      C1718   1.388       .  A
C1718      H1733   1.087       .  S
C1719      C1720   1.386       .  A
C1719      C1724   1.418       .  A
C1720      C1721   1.382       .  A
C1720      H1735   1.059       .  S
C1721      C1722   1.422       .  A
C1721      C1725   1.446       .  S
C1722      C1723   1.410       .  A
C1723      C1724   1.417       .  A
C1723      H1736   1.078       .  S
C1724      C1726   1.435       .  S
C1725      N1729   1.157       .  T
C1726      N1730   1.154       .  T
C1727      N1732   1.156       .  T
C1728      N1731   1.155       .  T
C1737      C1738   1.411       .  A
C1737      C1742   1.402       .  A
C1737      C1751   1.432       .  S
C1738      C1743   1.513       .  S
C1738      C1739   1.409       .  A
C1739      C1740   1.406       .  A
C1739      H1758   1.084       .  S
C1740      C1741   1.413       .  A
C1740      C1752   1.444       .  S
C1741      C1742   1.404       .  A
C1742      H1757   1.086       .  S
C1743      C1744   1.407       .  A
C1743      C1748   1.423       .  A
C1744      C1745   1.401       .  A
C1744      H1759   1.076       .  S
C1745      C1746   1.407       .  A
C1745      C1749   1.444       .  S
C1746      C1747   1.397       .  A
C1747      C1748   1.400       .  A
C1748      C1750   1.438       .  S
C1749      N1753   1.157       .  T
C1751      N1756   1.153       .  T
C1752      N1755   1.157       .  T
C1761      C1762   1.433       .  A
C1761      C1766   1.390       .  A
C1761      C1775   1.419       .  S
C1762      C1767   1.545       .  S
C1762      C1763   1.422       .  A
C1763      C1764   1.418       .  A
C1763      H1782   1.073       .  S
C1764      C1765   1.406       .  A
C1764      C1776   1.441       .  S
C1765      C1766   1.374       .  A
C1766      H1781   1.089       .  S
C1767      C1768   1.412       .  A
C1767      C1772   1.436       .  A
C1768      C1769   1.407       .  A
C1768      H1783   1.067       .  S
C1769      C1770   1.394       .  A
C1769      C1773   1.444       .  S
C1770      C1771   1.402       .  A
C1771      C1772   1.416       .  A
C1771      H1784   1.085       .  S
C1772      C1774   1.439       .  S
C1773      N1777   1.157       .  T
C1775      N1780   1.151       .  T
C1776      N1779   1.157       .  T
C1785      C1786   1.420       .  A
C1785      C1790   1.380       .  A
C1785      C1799   1.430       .  S
C1786      C1791   1.495       .  S
C1786      C1787   1.411       .  A
C1787      C1788   1.404       .  A
C1787      H1806   1.085       .  S
C1788      C1789   1.405       .  A
C1788      C1800   1.436       .  S
C1789      C1790   1.386       .  A
C1790      H1805   1.088       .  S
C1791      C1792   1.402       .  A
C1791      C1796   1.405       .  A
C1792      C1793   1.400       .  A
C1792      H1807   1.083       .  S
C1793      C1794   1.412       .  A
C1793      C1797   1.442       .  S
C1794      C1795   1.408       .  A
C1795      C1796   1.408       .  A
C1795      H1808   1.076       .  S
C1796      C1798   1.439       .  S
C1797      N1801   1.156       .  T
C1798      N1802   1.155       .  T
C1799      N1804   1.154       .  T
C1800      N1803   1.156       .  T
C1809      C1810   1.436       .  A
C1809      C1814   1.406       .  A
C1809      C1823   1.441       .  S
C1810      C1815   1.533       .  S
C1810      C1811   1.411       .  A
C1811      C1812   1.404       .  A
C1811      H1830   1.074       .  S
C1812      C1813   1.400       .  A
C1812      C1824   1.432       .  S
C1813      C1814   1.396       .  A
C1814      H1829   1.085       .  S
C1815      C1816   1.425       .  A
C1815      C1820   1.412       .  A
C1816      C1817   1.419       .  A
C1816      H1831   1.082       .  S
C1817      C1818   1.408       .  A
C1817      C1821   1.440       .  S
C1818      C1819   1.411       .  A
C1819      C1820   1.403       .  A
C1819      H1832   1.086       .  S
C1820      C1822   1.436       .  S
C1821      N1825   1.156       .  T
C1822      N1826   1.155       .  T
C1823      N1828   1.158       .  T
C1824      N1827   1.153       .  T
C1833      C1834   1.410       .  A
C1833      C1838   1.387       .  A
C1833      C1847   1.418       .  S
C1834      C1839   1.497       .  S
C1834      C1835   1.407       .  A
C1835      C1836   1.410       .  A
C1835      H1854   1.081       .  S
C1836      C1837   1.405       .  A
C1836      C1848   1.440       .  S
C1837      C1838   1.379       .  A
C1838      H1853   1.084       .  S
C1839      C1840   1.399       .  A
C1839      C1844   1.400       .  A
C1840      C1841   1.407       .  A
C1840      H1855   1.080       .  S
C1841      C1842   1.414       .  A
C1842      C1843   1.411       .  A
C1843      C1844   1.412       .  A
C1843      H1856   1.083       .  S
C1844      C1846   1.433       .  S
C1845      N1849   1.157       .  T
C1846      N1850   1.154       .  T
C1847      N1852   1.149       .  T
C1848      N1851   1.156       .  T
C1857      C1858   1.411       .  A
C1857      C1862   1.395       .  A
C1857      C1871   1.418       .  S
C1858      C1863   1.493       .  S
C1858      C1859   1.396       .  A
C1859      C1860   1.386       .  A
C1859      H1878   1.063       .  S
C1860      C1861   1.401       .  A
C1860      C1872   1.438       .  S
C1861      C1862   1.390       .  A
C1862      H1877   1.081       .  S
C1863      C1864   1.403       .  A
C1863      C1868   1.413       .  A
C1864      C1865   1.411       .  A
C1864      H1879   1.083       .  S
C1865      C1866   1.416       .  A
C1865      C1869   1.443       .  S
C1866      C1867   1.399       .  A
C1867      C1868   1.397       .  A
C1867      H1880   1.085       .  S
C1868      C1870   1.440       .  S
C1869      N1873   1.157       .  T
C1870      N1874   1.155       .  T
C1871      N1876   1.151       .  T
C1872      N1875   1.153       .  T
C1881      C1882   1.416       .  A
C1881      C1886   1.405       .  A
C1881      C1895   1.439       .  S
C1882      C1887   1.497       .  S
C1882      C1883   1.406       .  A
C1883      C1884   1.409       .  A
C1883      H1902   1.082       .  S
C1884      C1885   1.411       .  A
C1884      C1896   1.438       .  S
C1885      C1886   1.401       .  A
C1886      H1901   1.084       .  S
C1887      C1888   1.405       .  A
C1887      C1892   1.406       .  A
C1888      C1889   1.410       .  A
C1888      H1903   1.082       .  S
C1889      C1890   1.402       .  A
C1889      C1893   1.433       .  S
C1890      C1891   1.389       .  A
C1891      C1892   1.389       .  A
C1891      H1904   1.085       .  S
C1892      C1894   1.414       .  S
C1893      N1897   1.154       .  T
C1894      N1898   1.149       .  T
C1895      N1900   1.156       .  T
C1896      N1899   1.155       .  T
C1905      C1906   1.416       .  A
C1905      C1910   1.408       .  A
C1905      C1919   1.445       .  S
C1906      C1911   1.516       .  S
C1906      C1907   1.396       .  A
C1907      C1908   1.386       .  A
C1907      H1926   1.070       .  S
C1908      C1909   1.428       .  A
C1908      C1920   1.442       .  S
C1909      C1910   1.412       .  A
C1910      H1925   1.069       .  S
C1911      C1912   1.412       .  A
C1911      C1916   1.428       .  A
C1912      C1913   1.390       .  A
C1912      H1927   1.075       .  S
C1913      C1914   1.395       .  A
C1913      C1917   1.437       .  S
C1914      C1915   1.390       .  A
C1915      C1916   1.393       .  A
C1916      C1918   1.441       .  S
C1917      N1921   1.154       .  T
C1918      N1922   1.156       .  T
C1919      N1924   1.158       .  T
C1920      N1923   1.155       .  T
