geometry optimzed in LAMMPS
_audit_creation_date              2020-11-30 
_audit_creation_method            'lammps2cif' 
_symmetry_space_group_name_H-M    'P1' 
_symmetry_Int_Tables_number       1 
_symmetry_cell_setting            triclinic 
loop_ 
_symmetry_equiv_pos_as_xyz 
  x,y,z 
_cell_length_a                    36.79575577 
_cell_length_b                    35.88648327185166 
_cell_length_c                    30.18392019982116 
_cell_angle_alpha                 90.52425535997358 
_cell_angle_beta                  88.6951880096722 
_cell_angle_gamma                 94.04301413642068 
loop_ 
_atom_site_label 
_atom_site_type_symbol 
_atom_site_fract_x 
_atom_site_fract_y 
_atom_site_fract_z 
_atom_site_charge 
C1          C  0.13310808  0.98330742  0.19036805     0.79800
N2          N  0.16940882  0.48713819  0.19822964    -0.78500
C3          C  0.18122976  0.48835943  0.24072503     0.82200
N4          N  0.15636014  0.48621812  0.27518353    -0.78400
C5          C  0.11985127  0.98257651  0.26733983     0.82300
N6          N  0.10887400  0.98107906  0.22477766    -0.80200
C7          C  0.28220821  0.49327690  0.22306151     0.79800
N8          N  0.24577101  0.49225596  0.21504333    -0.78500
C9          C  0.22078116  0.49110069  0.24938943     0.83000
N10         N  0.23240303  0.49048345  0.29190899    -0.78400
C11         C  0.26860621  0.49198104  0.30011295     0.82300
N12         N  0.29300802  0.49343878  0.26576989    -0.80200
C13         C  0.45380470  0.14117765  0.22262339     0.79800
N14         N  0.46173351  0.13086800  0.26426072    -0.78500
C15         C  0.46104453  0.15523931  0.29868522     0.82200
N16         N  0.45188087  0.19057173  0.29189176    -0.78400
C17         C  0.44426614  0.20172179  0.25044593     0.82300
N18         N  0.44506459  0.17694507  0.21585165    -0.80200
C19         C  0.41917251  0.28752901  0.19542629     0.79800
N20         N  0.42903046  0.25232216  0.20181833    -0.78500
C21         C  0.43447910  0.24022540  0.24352612     0.82200
N22         N  0.43114462  0.26399173  0.27875415    -0.78400
C23         C  0.42170595  0.29954751  0.27249279     0.82300
N24         N  0.41566581  0.31076164  0.23063930    -0.80200
O25         O  0.47301675  0.00079743  0.08931559    -0.80600
O26         O  0.38052310  0.49382124  0.45932970    -0.80600
O27         O  0.50180075  0.06046167  0.47169592    -0.80600
O28         O  0.38458818  0.47919965  0.04000329    -0.80500
O29         O  0.44366546  0.04661828  0.45822575    -0.80700
O30         O  0.41483448  0.45174593  0.09006377    -0.80600
O31         O  0.35408552  0.43767621  0.47091121    -0.80600
O32         O  0.45352642  0.03751742  0.03925843    -0.80600
C33         C  0.46032713  0.03143365  0.07927327     1.09100
C34         C  0.35388542  0.46937635  0.45195804     1.09000
C35         C  0.47302785  0.06799763  0.45197732     1.09200
C36         C  0.38848695  0.47084801  0.08003892     1.09000
O37         O  0.45625073  0.39789775  0.04183497    -0.80600
O38         O  0.47896879  0.49439841  0.40023060    -0.80600
O39         O  0.02489276  0.00933608  0.03406688    -0.80600
O40         O  0.41875477  0.40546720  0.45211924    -0.80500
O41         O  0.42112863  0.44680842  0.40110053    -0.80600
O42         O  0.51682510  0.44897191  0.04298323    -0.80600
O43         O  0.39741827  0.40054752  0.03532440    -0.80500
O44         O  0.01785302  0.98876880  0.45111706    -0.80600
Co45       Co  0.46474137  0.45041069  0.06108530     1.51500
Co46       Co  0.43310402  0.49272863  0.43688614     1.51700
Co47       Co  0.48352350  0.01246017  0.49280640     1.51600
Co48       Co  0.40284829  0.44442008  0.49365051     1.51500
O49         O  0.45328218  0.46566336  0.49720181    -1.42500
C50         C  0.42434467  0.38307172  0.04775215     1.09100
C51         C  0.01090059  0.48862812  0.41076066     1.09200
C52         C  0.03661443  0.47905520  0.04739831     1.09100
C53         C  0.42019052  0.41304618  0.41177499     1.09100
C54         C  0.41949243  0.38340765  0.37690831    -0.05900
C55         C  0.42454570  0.34607843  0.38765740    -0.33300
C56         C  0.42489430  0.31814056  0.35459655     0.35900
C57         C  0.41984553  0.32722044  0.30973337    -0.06200
C58         C  0.41372735  0.36443521  0.29958171    -0.33200
C59         C  0.41341608  0.39213222  0.33229790     0.35800
H60         H  0.42869514  0.33852411  0.42175081     0.16200
O61         O  0.42971115  0.28213486  0.36677307    -0.60700
H62         H  0.40941533  0.37261241  0.26575983     0.16200
O63         O  0.40735620  0.42782512  0.31987419    -0.60800
H64         H  0.38051117  0.42907425  0.32138358     0.43200
H65         H  0.45642233  0.28095868  0.36940620     0.43200
C66         C  0.41602501  0.30252227  0.15064101    -0.05900
C67         C  0.44644352  0.30388453  0.12183750    -0.33300
C68         C  0.44819574  0.32742443  0.08499350     0.35900
C69         C  0.41894463  0.34965267  0.07632631    -0.06200
C70         C  0.38687581  0.34473387  0.10244091    -0.33200
C71         C  0.38547473  0.32168711  0.13968441     0.35800
H72         H  0.47017127  0.28928149  0.13003865     0.16200
O73         O  0.47989354  0.33097433  0.06012449    -0.60700
H74         H  0.36404875  0.36138652  0.09654834     0.16200
O75         O  0.35519843  0.32034029  0.16713207    -0.60800
H76         H  0.33994006  0.29807183  0.15720764     0.43200
H77         H  0.97656809  0.31229531  0.03593106     0.43200
C78         C  0.47281781  0.09909422  0.42034547    -0.05900
C79         C  0.43931106  0.11301303  0.40994306    -0.33300
C80         C  0.43604143  0.13442931  0.37201351     0.35900
C81         C  0.46632780  0.14163312  0.34352274    -0.06200
C82         C  0.50039600  0.13014523  0.35527515    -0.33200
C83         C  0.50394133  0.10937783  0.39382722     0.35800
H84         H  0.41504461  0.10530731  0.42973410     0.16200
O85         O  0.40235643  0.14484051  0.36062885    -0.60700
H86         H  0.52385289  0.13557488  0.33332403     0.16200
O87         O  0.53725836  0.09679845  0.40320124    -0.60800
H88         H  0.53865540  0.07318536  0.38610494     0.43200
H89         H  0.40050179  0.16998530  0.37402832     0.43200
C90         C  0.45439198  0.11315913  0.18556133    -0.05900
C91         C  0.44195928  0.12147284  0.14311046    -0.33300
C92         C  0.44307634  0.09536299  0.10796057     0.35900
C93         C  0.45652397  0.06003341  0.11492934    -0.06200
C94         C  0.46831923  0.05176097  0.15742175    -0.33200
C95         C  0.46738810  0.07749433  0.19220338     0.35800
H96         H  0.43147354  0.14835512  0.13696418     0.16200
O97         O  0.43072280  0.10467453  0.06727589    -0.60700
H98         H  0.47902041  0.02505579  0.16406363     0.16200
O99         O  0.98068297  0.06757381  0.23217597    -0.60800
H100        H  0.96051469  0.05206305  0.24670128     0.43200
H101        H  0.45252248  0.11561588  0.05086756     0.43200
C102        C  0.28229622  0.48919010  0.34545165    -0.05900
C103        C  0.30551749  0.51835050  0.36191086    -0.33300
C104        C  0.32629382  0.51339060  0.39938446     0.35900
C105        C  0.32512516  0.47813886  0.42036168    -0.06200
C106        C  0.29970477  0.44979759  0.40567328    -0.33200
C107        C  0.27815298  0.45529196  0.36871969     0.35800
H108        H  0.30892495  0.54459374  0.34429150     0.16200
O109        O  0.34964932  0.54251907  0.41298805    -0.60700
H110        H  0.29810096  0.42255976  0.42104724     0.16200
O111        O  0.25585166  0.42613977  0.35302741    -0.60800
H112        H  0.23165241  0.42943969  0.36706699     0.43200
H113        H  0.33564080  0.55607697  0.43564512     0.43200
C114        C  0.31014353  0.49109719  0.18611979    -0.05900
C115        C  0.30073137  0.49564270  0.14154997    -0.33300
C116        C  0.32614850  0.49092465  0.10653421     0.35900
C117        C  0.36168339  0.48078217  0.11551562    -0.06200
C118        C  0.37134129  0.47760838  0.15996031    -0.33200
C119        C  0.34641069  0.48281324  0.19479846     0.35800
H120        H  0.27338353  0.50232705  0.13364089     0.16200
O121        O  0.31523221  0.99449571  0.06367899    -0.60700
H122        H  0.39847316  0.47029255  0.16804814     0.16200
O123        O  0.35764578  0.47769245  0.23719661    -0.60800
H124        H  0.37022155  0.50190287  0.24597819     0.43200
H125        H  0.32066496  0.02125574  0.05650602     0.43200
C126        C  0.03921225  0.48386705  0.37516578    -0.05900
C127        C  0.02904423  0.48642063  0.33077145    -0.33300
C128        C  0.05457497  0.48542278  0.29584862     0.35900
C129        C  0.09187946  0.48177700  0.30435339    -0.06200
C130        C  0.10203473  0.97808845  0.34876121    -0.33200
C131        C  0.07616091  0.97902992  0.38390216     0.35800
H132        H  0.00099008  0.49017664  0.32273361     0.16200
O133        O  0.04261911  0.48988883  0.25362438    -0.60700
H134        H  0.13027815  0.97509634  0.35647825     0.16200
O135        O  0.08766541  0.97664921  0.42659988    -0.60800
H136        H  0.08642705  0.94953785  0.43305755     0.43200
H137        H  0.03373545  0.46450888  0.24367477     0.43200
C138        C  0.11888027  0.48314374  0.14533423    -0.05900
C139        C  0.10845221  0.44890548  0.12501554    -0.33300
C140        C  0.08407134  0.44718048  0.08988864     0.35900
C141        C  0.06978601  0.48016772  0.07469457    -0.06200
C142        C  0.08329720  0.01466612  0.09237127    -0.33200
C143        C  0.10722450  0.01621850  0.12779116     0.35800
H144        H  0.11687688  0.42316422  0.13874158     0.16200
O145        O  0.07195369  0.41286008  0.07355984    -0.60700
H146        H  0.07281599  0.04047092  0.08158583     0.16200
O147        O  0.11579613  0.04987688  0.14825165    -0.60800
H148        H  0.13916637  0.05946218  0.13415659     0.43200
H149        H  0.08866166  0.40804434  0.04824182     0.43200
C150        C  0.13311738  0.98324652  0.69036948     0.79800
N151        N  0.16942447  0.48711484  0.69821960    -0.78500
C152        C  0.18124798  0.48841126  0.74071316     0.82200
N153        N  0.15637782  0.48634059  0.77517472    -0.78400
C154        C  0.11986150  0.98267196  0.76734315     0.82300
N155        N  0.10888241  0.98108639  0.72478197    -0.80200
C156        C  0.28223581  0.49339599  0.72303216     0.79800
N157        N  0.24579425  0.49236532  0.71502325    -0.78500
C158        C  0.22080353  0.49115447  0.74937199     0.83000
N159        N  0.23242835  0.49048502  0.79188659    -0.78400
C160        C  0.26863214  0.49197419  0.80008528     0.82300
N161        N  0.29303383  0.49348940  0.76574002    -0.80200
C162        C  0.45386690  0.14120178  0.72261306     0.79800
N163        N  0.46178030  0.13088495  0.76425229    -0.78500
C164        C  0.46106070  0.15524465  0.79868552     0.82200
N165        N  0.45188364  0.19057377  0.79189710    -0.78400
C166        C  0.44428464  0.20173137  0.75044824     0.82300
N167        N  0.44511117  0.17696477  0.71584630    -0.80200
C168        C  0.41916306  0.28754167  0.69544855     0.79800
N169        N  0.42904358  0.25233984  0.70182757    -0.78500
C170        C  0.43447989  0.24023058  0.74353493     0.82200
N171        N  0.43110904  0.26397873  0.77877325    -0.78400
C172        C  0.42164668  0.29952731  0.77252412     0.82300
N173        N  0.41562029  0.31075289  0.73067346    -0.80200
O174        O  0.47307893  0.00081771  0.58930896    -0.80600
O175        O  0.38049662  0.49376409  0.95936203    -0.80600
O176        O  0.50173065  0.06047540  0.97174574    -0.80600
O177        O  0.38461567  0.47925379  0.53996328    -0.80500
O178        O  0.44360906  0.04660203  0.95822256    -0.80700
O179        O  0.41484353  0.45183016  0.59007342    -0.80600
O180        O  0.35405991  0.43762045  0.97093607    -0.80600
O181        O  0.45361118  0.03754849  0.53924872    -0.80600
C182        C  0.46041294  0.03146378  0.57926306     1.09100
C183        C  0.35386667  0.46931610  0.95197128     1.09000
C184        C  0.47296895  0.06798953  0.95199169     1.09200
C185        C  0.38850788  0.47093851  0.58001122     1.09000
O186        O  0.45622814  0.39791487  0.54186438    -0.80600
O187        O  0.47893563  0.49442291  0.90023622    -0.80600
O188        O  0.02494769  0.00930901  0.53404616    -0.80600
O189        O  0.41873671  0.40545108  0.95212607    -0.80500
O190        O  0.42111430  0.44678687  0.90109880    -0.80600
O191        O  0.51682710  0.44894083  0.54297133    -0.80600
O192        O  0.39740336  0.40059921  0.53534249    -0.80500
O193        O  0.01782363  0.98881464  0.95111833    -0.80600
Co194      Co  0.46475250  0.45043080  0.56109082     1.51500
Co195      Co  0.43307040  0.49271107  0.93689035     1.51700
Co196      Co  0.48347042  0.01246370  0.99282053     1.51600
Co197      Co  0.40282736  0.44438873  0.99366516     1.51500
O198        O  0.45326043  0.46564786  0.99720058    -1.42500
C199        C  0.42431618  0.38310932  0.54778311     1.09100
C200        C  0.01088108  0.48869640  0.91075158     1.09200
C201        C  0.03664239  0.47902083  0.54738655     1.09100
C202        C  0.42016033  0.41302570  0.91178291     1.09100
C203        C  0.41942210  0.38337810  0.87693385    -0.05900
C204        C  0.42462904  0.34607991  0.88766552    -0.33300
C205        C  0.42496337  0.31813830  0.85461088     0.35900
C206        C  0.41974834  0.32718475  0.80977384    -0.06200
C207        C  0.41344617  0.36436064  0.79965140    -0.33200
C208        C  0.41314679  0.39206065  0.83236374     0.35800
H209        H  0.42892214  0.33855740  0.92173623     0.16200
O210        O  0.42994769  0.28216441  0.86676749    -0.60700
H211        H  0.40898196  0.37250607  0.76585517     0.16200
O212        O  0.40689499  0.42771425  0.81997867    -0.60800
H213        H  0.38004424  0.42887006  0.82170560     0.43200
H214        H  0.45668112  0.28108333  0.86925717     0.43200
C215        C  0.41599448  0.30255133  0.65067152    -0.05900
C216        C  0.44637392  0.30385843  0.62180652    -0.33300
C217        C  0.44811954  0.32740640  0.58496736     0.35900
C218        C  0.41889955  0.34969518  0.57636480    -0.06200
C219        C  0.38686292  0.34483770  0.60254505    -0.33200
C220        C  0.38546999  0.32178599  0.63978336     0.35800
H221        H  0.47008280  0.28920426  0.62995313     0.16200
O222        O  0.47978518  0.33089733  0.56003197    -0.60700
H223        H  0.36406276  0.36154120  0.59670594     0.16200
O224        O  0.35523361  0.32050381  0.66729512    -0.60800
H225        H  0.33993034  0.29824845  0.65742449     0.43200
H226        H  0.97640779  0.31224754  0.53582817     0.43200
C227        C  0.47278077  0.09906827  0.92033670    -0.05900
C228        C  0.43929503  0.11303968  0.90995187    -0.33300
C229        C  0.43604860  0.13447261  0.87202956     0.35900
C230        C  0.46633351  0.14162699  0.84352128    -0.06200
C231        C  0.50038128  0.13007019  0.85524856    -0.33200
C232        C  0.50390612  0.10929302  0.89379592     0.35800
H233        H  0.41502768  0.10537233  0.92975849     0.16200
O234        O  0.40238186  0.14495172  0.86067058    -0.60700
H235        H  0.52383570  0.13545608  0.83328218     0.16200
O236        O  0.53720035  0.09664603  0.90314477    -0.60800
H237        H  0.53856749  0.07305629  0.88599566     0.43200
H238        H  0.40058830  0.17011075  0.87405431     0.43200
C239        C  0.45448344  0.11319272  0.68554536    -0.05900
C240        C  0.44196827  0.12146899  0.64312255    -0.33300
C241        C  0.44309266  0.09535939  0.60797339     0.35900
C242        C  0.45663497  0.06007056  0.61491442    -0.06200
C243        C  0.46852786  0.05183993  0.65737532    -0.33200
C244        C  0.46758205  0.07757033  0.69215911     0.35800
H245        H  0.43140199  0.14831738  0.63700152     0.16200
O246        O  0.43064049  0.10462410  0.56732114    -0.60700
H247        H  0.47931074  0.02516956  0.66399145     0.16200
O248        O  0.98090240  0.06767418  0.73211543    -0.60800
H249        H  0.96081338  0.05204422  0.74662797     0.43200
H250        H  0.45238310  0.11564242  0.55086777     0.43200
C251        C  0.28232367  0.48915041  0.84542038    -0.05900
C252        C  0.30553322  0.51830683  0.86190977    -0.33300
C253        C  0.32629409  0.51333485  0.89939234     0.35900
C254        C  0.32512522  0.47807436  0.92034801    -0.06200
C255        C  0.29971968  0.44973233  0.90562612    -0.33200
C256        C  0.27817737  0.45524079  0.86866671     0.35800
H257        H  0.30893892  0.54456057  0.84431211     0.16200
O258        O  0.34963127  0.54246520  0.91303293    -0.60700
H259        H  0.29811530  0.42248826  0.92098484     0.16200
O260        O  0.25587510  0.42609685  0.85295652    -0.60800
H261        H  0.23166768  0.42941190  0.86696642     0.43200
H262        H  0.33560539  0.55600527  0.93568945     0.43200
C263        C  0.31017808  0.49129761  0.68607131    -0.05900
C264        C  0.30066202  0.49549587  0.64147690    -0.33300
C265        C  0.32607129  0.49075964  0.60645684     0.35900
C266        C  0.36170770  0.48093985  0.61545923    -0.06200
C267        C  0.37147826  0.47815517  0.65991024    -0.33200
C268        C  0.34655706  0.48340314  0.69475292     0.35800
H269        H  0.27323410  0.50189312  0.63355138     0.16200
O270        O  0.31506102  0.99399068  0.56359794    -0.60700
H271        H  0.39869964  0.47112381  0.66799985     0.16200
O272        O  0.35793703  0.47873256  0.73717759    -0.60800
H273        H  0.37031786  0.50311608  0.74566847     0.43200
H274        H  0.32028725  0.02073314  0.55619781     0.43200
C275        C  0.03921000  0.48401930  0.87515131    -0.05900
C276        C  0.02907188  0.48671787  0.83076138    -0.33300
C277        C  0.05461259  0.48574538  0.79584348     0.35900
C278        C  0.09189529  0.48196897  0.80434725    -0.06200
C279        C  0.10202705  0.97819814  0.84876244    -0.33200
C280        C  0.07614680  0.97913190  0.88389873     0.35800
H281        H  0.00103472  0.49056202  0.82272556     0.16200
O282        O  0.04269562  0.49036527  0.75363019    -0.60700
H283        H  0.13026082  0.97515119  0.85648068     0.16200
O284        O  0.08763737  0.97669449  0.92659574    -0.60800
H285        H  0.08638764  0.94957500  0.93300795     0.43200
H286        H  0.03362883  0.46505590  0.74363650     0.43200
C287        C  0.11889968  0.48307091  0.64532304    -0.05900
C288        C  0.10843108  0.44882695  0.62504123    -0.33300
C289        C  0.08405877  0.44710901  0.58990421     0.35900
C290        C  0.06982044  0.48010809  0.57466952    -0.06200
C291        C  0.08336922  0.01459772  0.59232301    -0.33200
C292        C  0.10728640  0.01614007  0.62775147     0.35800
H293        H  0.11681723  0.42308280  0.63880133     0.16200
O294        O  0.07189846  0.41278990  0.57361001    -0.60700
H295        H  0.07292316  0.04041185  0.58151158     0.16200
O296        O  0.11589107  0.04980187  0.64818786    -0.60800
H297        H  0.13928976  0.05933715  0.63412137     0.43200
H298        H  0.08858681  0.40794233  0.54828308     0.43200
C299        C  0.13314203  0.48335453  0.19039095     0.79800
N300        N  0.16937257  0.98711913  0.19820774    -0.78500
C301        C  0.18119286  0.98831139  0.24070175     0.82200
N302        N  0.15632383  0.98610948  0.27515931    -0.78400
C303        C  0.11988746  0.48272202  0.26736441     0.82300
N304        N  0.10890792  0.48119032  0.22480320    -0.80200
C305        C  0.28216927  0.99329262  0.22302256     0.79800
N306        N  0.24573031  0.99224704  0.21501028    -0.78500
C307        C  0.22074411  0.99107811  0.24936086     0.83000
N308        N  0.23237109  0.99046999  0.29187829    -0.78400
C309        C  0.26857579  0.99199516  0.30007689     0.82300
N310        N  0.29297391  0.99346785  0.26572963    -0.80200
C311        C  0.45373586  0.64117070  0.22262030     0.79800
N312        N  0.46168601  0.63086901  0.26425343    -0.78500
C313        C  0.46101768  0.65524546  0.29867393     0.82200
N314        N  0.45184865  0.69057733  0.29188179    -0.78400
C315        C  0.44421301  0.70172244  0.25043949     0.82300
N316        N  0.44499425  0.67693879  0.21584849    -0.80200
C317        C  0.41909915  0.78752691  0.19541720     0.79800
N318        N  0.42896871  0.75232361  0.20181128    -0.78500
C319        C  0.43441346  0.74022611  0.24352097     0.82200
N320        N  0.43106370  0.76399110  0.27874995    -0.78400
C321        C  0.42161152  0.79954354  0.27248605     0.82300
N322        N  0.41557604  0.81075525  0.23063078    -0.80200
O323        O  0.47303035  0.50080371  0.08931696    -0.80600
O324        O  0.38050200  0.99385601  0.45930130    -0.80600
O325        O  0.50179054  0.56047124  0.47169290    -0.80600
O326        O  0.38456236  0.97922723  0.03997077    -0.80500
O327        O  0.44366138  0.54660229  0.45822252    -0.80700
O328        O  0.41479656  0.95176680  0.09003839    -0.80600
O329        O  0.35406034  0.93771042  0.47087537    -0.80600
O330        O  0.45351114  0.53750354  0.03925804    -0.80600
C331        C  0.46030491  0.53142266  0.07927551     1.09100
C332        C  0.35386145  0.96941325  0.45192769     1.09000
C333        C  0.47301595  0.56799109  0.45196744     1.09200
C334        C  0.38845444  0.97087456  0.08000669     1.09000
O335        O  0.45620068  0.89790227  0.04181491    -0.80600
O336        O  0.47895962  0.99439890  0.40023398    -0.80600
O337        O  0.02487180  0.50935267  0.03412045    -0.80600
O338        O  0.41872397  0.90548740  0.45209709    -0.80500
O339        O  0.42110266  0.94683235  0.40108317    -0.80600
O340        O  0.51679190  0.94895306  0.04298279    -0.80600
O341        O  0.39737084  0.90056628  0.03530505    -0.80500
O342        O  0.01786470  0.48883482  0.45114664    -0.80600
Co343      Co  0.46470680  0.95041094  0.06107381     1.51500
Co344      Co  0.43309037  0.99274780  0.43687891     1.51700
Co345      Co  0.48352849  0.51246205  0.49280220     1.51600
Co346      Co  0.40281976  0.94443969  0.49362951     1.51500
O347        O  0.45325573  0.96567428  0.49719758    -1.42500
C348        C  0.42429261  0.88308431  0.04773762     1.09100
C349        C  0.01088286  0.98852598  0.41073375     1.09200
C350        C  0.03661406  0.97903098  0.04734957     1.09100
C351        C  0.42015565  0.91306798  0.41175301     1.09100
C352        C  0.41943879  0.88342703  0.37688513    -0.05900
C353        C  0.42440013  0.84608064  0.38765023    -0.33300
C354        C  0.42472426  0.81813488  0.35459614     0.35900
C355        C  0.41975026  0.82722426  0.30972097    -0.06200
C356        C  0.41371443  0.86445668  0.29955158    -0.33200
C357        C  0.41342450  0.89216158  0.33226184     0.35800
H358        H  0.42849185  0.83851636  0.42175344     0.16200
O359        O  0.42943474  0.78211095  0.36679107    -0.60700
H360        H  0.40945816  0.87264235  0.26571943     0.16200
O361        O  0.40745300  0.92787184  0.31981839    -0.60800
H362        H  0.38061421  0.92918146  0.32129332     0.43200
H363        H  0.45613262  0.78086904  0.36949235     0.43200
C364        C  0.41595873  0.80252609  0.15063098    -0.05900
C365        C  0.44638070  0.80389205  0.12183248    -0.33300
C366        C  0.44813813  0.82743635  0.08499133     0.35900
C367        C  0.41888912  0.84966769  0.07632004    -0.06200
C368        C  0.38681910  0.84474999  0.10243260    -0.33200
C369        C  0.38541229  0.82169744  0.13967265     0.35800
H370        H  0.47010668  0.78928665  0.13003486     0.16200
O371        O  0.47983828  0.83098359  0.06012661    -0.60700
H372        H  0.36399421  0.86140526  0.09653892     0.16200
O373        O  0.35513322  0.82035047  0.16711574    -0.60800
H374        H  0.33988554  0.79806976  0.15720572     0.43200
H375        H  0.97643098  0.81229664  0.03585520     0.43200
C376        C  0.47279207  0.59908241  0.42032748    -0.05900
C377        C  0.43927353  0.61296152  0.40989811    -0.33300
C378        C  0.43600026  0.63437851  0.37197057     0.35900
C379        C  0.46629785  0.64163491  0.34351202    -0.06200
C380        C  0.50037466  0.63018287  0.35528829    -0.33200
C381        C  0.50392050  0.60940451  0.39383387     0.35800
H382        H  0.41500217  0.60522364  0.42966568     0.16200
O383        O  0.40230523  0.64473980  0.36055438    -0.60700
H384        H  0.52383930  0.63564612  0.33335823     0.16200
O385        O  0.53724587  0.59685284  0.40322377    -0.60800
H386        H  0.53866824  0.57324501  0.38612307     0.43200
H387        H  0.40041134  0.66988330  0.37394212     0.43200
C388        C  0.45430268  0.61314023  0.18556540    -0.05900
C389        C  0.44188827  0.62145489  0.14310530    -0.33300
C390        C  0.44301215  0.59534153  0.10795771     0.35900
C391        C  0.45645267  0.56000964  0.11493668    -0.06200
C392        C  0.46820475  0.55172701  0.15744458    -0.33200
C393        C  0.46726692  0.57746242  0.19222333     0.35800
H394        H  0.43141886  0.64834290  0.13694794     0.16200
O395        O  0.43067793  0.60465416  0.06726363    -0.60700
H396        H  0.47888602  0.52501464  0.16409958     0.16200
O397        O  0.98036358  0.56743376  0.23232038    -0.60800
H398        H  0.96013653  0.55196965  0.24679489     0.43200
H399        H  0.45248653  0.61558726  0.05086576     0.43200
C400        C  0.28227281  0.98921790  0.34541480    -0.05900
C401        C  0.30551707  0.01837123  0.36184637    -0.33300
C402        C  0.32628844  0.01341975  0.39932635     0.35900
C403        C  0.32509952  0.97817927  0.42033199    -0.06200
C404        C  0.29965494  0.94984824  0.40567232    -0.33200
C405        C  0.27810147  0.95533823  0.36871787     0.35800
H406        H  0.30894222  0.04460255  0.34420417     0.16200
O407        O  0.34965704  0.04254399  0.41291063    -0.60700
H408        H  0.29803058  0.92262039  0.42107183     0.16200
O409        O  0.25576931  0.92619600  0.35306018    -0.60800
H410        H  0.23158349  0.92951735  0.36712474     0.43200
H411        H  0.33565583  0.05611866  0.43555948     0.43200
C412        C  0.31010350  0.99111977  0.18607791    -0.05900
C413        C  0.30068836  0.99565382  0.14150649    -0.33300
C414        C  0.32610817  0.99093999  0.10649153     0.35900
C415        C  0.36164723  0.98081116  0.11547672    -0.06200
C416        C  0.37130670  0.97764938  0.15992152    -0.33200
C417        C  0.34637483  0.98285160  0.19475754     0.35800
H418        H  0.27333712  0.00232599  0.13359623     0.16200
O419        O  0.31527315  0.49449039  0.06372318    -0.60700
H420        H  0.39844166  0.97034473  0.16801155     0.16200
O421        O  0.35761429  0.97774339  0.23715610    -0.60800
H422        H  0.37015896  0.00196822  0.24594184     0.43200
H423        H  0.32070843  0.52125158  0.05655796     0.43200
C424        C  0.03918589  0.98368680  0.37515203    -0.05900
C425        C  0.02896678  0.98594146  0.33074528    -0.33300
C426        C  0.05449097  0.98492151  0.29581759     0.35900
C427        C  0.09184183  0.98156471  0.30433256    -0.06200
C428        C  0.10202530  0.47804461  0.34876215    -0.33200
C429        C  0.07614464  0.47897132  0.38390005     0.35800
H430        H  0.00087294  0.98947960  0.32269708     0.16200
O431        O  0.04246716  0.98907097  0.25356743    -0.60700
H432        H  0.13023462  0.47483748  0.35646423     0.16200
O433        O  0.08760082  0.47630976  0.42658459    -0.60800
H434        H  0.08620380  0.44916279  0.43285995     0.43200
H435        H  0.03388781  0.96356356  0.24374163     0.43200
C436        C  0.11885078  0.98308003  0.14531184    -0.05900
C437        C  0.10834923  0.94883296  0.12506403    -0.33300
C438        C  0.08398215  0.94711345  0.08992743     0.35900
C439        C  0.06977906  0.98011648  0.07465329    -0.06200
C440        C  0.08323332  0.51471666  0.09247970    -0.33200
C441        C  0.10716832  0.51627357  0.12788995     0.35800
H442        H  0.11670813  0.92308770  0.13885143     0.16200
O443        O  0.07178993  0.91279077  0.07367404    -0.60700
H444        H  0.07268898  0.54050927  0.08175711     0.16200
O445        O  0.11566589  0.54991815  0.14841780    -0.60800
H446        H  0.13903550  0.55955990  0.13436854     0.43200
H447        H  0.08852696  0.90786453  0.04842222     0.43200
C448        C  0.13315754  0.48331242  0.69038367     0.79800
N449        N  0.16938181  0.98708283  0.69820560    -0.78500
C450        C  0.18120512  0.98835005  0.74069748     0.82200
N451        N  0.15633590  0.98621363  0.77515879    -0.78400
C452        C  0.11990344  0.48284198  0.76735881     0.82300
N453        N  0.10892193  0.48122177  0.72479852    -0.80200
C454        C  0.28219072  0.99340231  0.72299765     0.79800
N455        N  0.24574718  0.99234455  0.71499518    -0.78500
C456        C  0.22076079  0.99112426  0.74934936     0.83000
N457        N  0.23239178  0.99047113  0.79186169    -0.78400
C458        C  0.26859733  0.99199173  0.80005393     0.82300
N459        N  0.29299449  0.99351727  0.76570389    -0.80200
C460        C  0.45379146  0.64118634  0.72261307     0.79800
N461        N  0.46173034  0.63087951  0.76424772    -0.78500
C462        C  0.46103713  0.65524697  0.79867508     0.82200
N463        N  0.45185653  0.69057589  0.79188650    -0.78400
C464        C  0.44423352  0.70172685  0.75044161     0.82300
N465        N  0.44503719  0.67695093  0.71584487    -0.80200
C466        C  0.41909407  0.78753505  0.69543795     0.79800
N467        N  0.42898781  0.75233733  0.70181920    -0.78500
C468        C  0.43441590  0.74022616  0.74352909     0.82200
N469        N  0.43102321  0.76397112  0.77876909    -0.78400
C470        C  0.42154492  0.79951552  0.77251740     0.82300
N471        N  0.41552808  0.81073986  0.73066412    -0.80200
O472        O  0.47309429  0.50082231  0.58930437    -0.80600
O473        O  0.38047870  0.99380058  0.95932842    -0.80600
O474        O  0.50171756  0.56048705  0.97174824    -0.80600
O475        O  0.38458683  0.97927562  0.53993666    -0.80500
O476        O  0.44360109  0.54659068  0.95822805    -0.80700
O477        O  0.41480658  0.95184749  0.59005216    -0.80600
O478        O  0.35403217  0.93765970  0.97090002    -0.80600
O479        O  0.45359726  0.53753322  0.53924321    -0.80600
C480        C  0.46038977  0.53145006  0.57926078     1.09100
C481        C  0.35384328  0.96935745  0.95193876     1.09000
C482        C  0.47295370  0.56798698  0.95198987     1.09200
C483        C  0.38847358  0.97095824  0.57998458     1.09000
O484        O  0.45618335  0.89792074  0.54184829    -0.80600
O485        O  0.47892798  0.99441311  0.90023316    -0.80600
O486        O  0.02492120  0.50932808  0.53410533    -0.80600
O487        O  0.41869797  0.90546726  0.95210331    -0.80500
O488        O  0.42108531  0.94680435  0.90107783    -0.80600
O489        O  0.51679684  0.94892771  0.54297807    -0.80600
O490        O  0.39736083  0.90061502  0.53532288    -0.80500
O491        O  0.01784029  0.48888187  0.95114028    -0.80600
Co492      Co  0.46471951  0.95043273  0.56108454     1.51500
Co493      Co  0.43305826  0.99272550  0.93687615     1.51700
Co494      Co  0.48347369  0.51246771  0.99282167     1.51600
Co495      Co  0.40279706  0.94440922  0.99364119     1.51500
O496        O  0.45323414  0.96565617  0.99719040    -1.42500
C497        C  0.42426985  0.88312083  0.54776954     1.09100
C498        C  0.01085935  0.98859164  0.91073213     1.09200
C499        C  0.03664478  0.97899359  0.54733526     1.09100
C500        C  0.42011667  0.91304115  0.91175969     1.09100
C501        C  0.41935326  0.88338892  0.87691132    -0.05900
C502        C  0.42446498  0.84607259  0.88766037    -0.33300
C503        C  0.42477513  0.81812266  0.85461259     0.35900
C504        C  0.41963885  0.82717936  0.80976245    -0.06200
C505        C  0.41341797  0.86437296  0.79962189    -0.33200
C506        C  0.41313893  0.89208101  0.83232807     0.35800
H507        H  0.42869914  0.83853998  0.92174142     0.16200
O508        O  0.42965072  0.78212972  0.86678855    -0.60700
H509        H  0.40901064  0.87252719  0.76581484     0.16200
O510        O  0.40697469  0.92775203  0.81992250    -0.60800
H511        H  0.38012968  0.92896768  0.82161458     0.43200
H512        H  0.45637080  0.78098215  0.86935160     0.43200
C513        C  0.41593415  0.80255170  0.65065995    -0.05900
C514        C  0.44631756  0.80386357  0.62180054    -0.33300
C515        C  0.44806843  0.82741657  0.58496451     0.35900
C516        C  0.41885026  0.84970809  0.57635796    -0.06200
C517        C  0.38681209  0.84485035  0.60253525    -0.33200
C518        C  0.38541324  0.82179226  0.63976948     0.35800
H519        H  0.47002474  0.78920723  0.62994849     0.16200
O520        O  0.47973629  0.83090547  0.56003327    -0.60700
H521        H  0.36401372  0.86155594  0.59669496     0.16200
O522        O  0.35517333  0.82050866  0.66727549    -0.60800
H523        H  0.33988371  0.79823810  0.65742181     0.43200
H524        H  0.97627125  0.81225068  0.53576068     0.43200
C525        C  0.47275324  0.59905966  0.92032550    -0.05900
C526        C  0.43925620  0.61299030  0.90990973    -0.33300
C527        C  0.43600795  0.63442155  0.87198723     0.35900
C528        C  0.46630540  0.64162681  0.84351263    -0.06200
C529        C  0.50036153  0.63010792  0.85526805    -0.33200
C530        C  0.50388511  0.60932256  0.89381156     0.35800
H531        H  0.41498290  0.60529157  0.92969151     0.16200
O532        O  0.40233175  0.64485061  0.86059372    -0.60700
H533        H  0.52382496  0.63552706  0.83332454     0.16200
O534        O  0.53718774  0.59670584  0.90318144    -0.60800
H535        H  0.53858380  0.57312172  0.88602793     0.43200
H536        H  0.40049897  0.67000938  0.87396328     0.43200
C537        C  0.45438047  0.61316287  0.68555379    -0.05900
C538        C  0.44190138  0.62144878  0.64311582    -0.33300
C539        C  0.44303395  0.59533762  0.60796697     0.35900
C540        C  0.45655466  0.56004017  0.61492082    -0.06200
C541        C  0.46838116  0.55178838  0.65740471    -0.33200
C542        C  0.46742464  0.57751787  0.69218870     0.35800
H543        H  0.43136601  0.64830925  0.63697988     0.16200
O544        O  0.43061829  0.60461249  0.56729997    -0.60700
H545        H  0.47912810  0.52510373  0.66403808     0.16200
O546        O  0.98058194  0.56753796  0.73226043    -0.60800
H547        H  0.96043563  0.55195335  0.74672431     0.43200
H548        H  0.45237831  0.61561707  0.55086872     0.43200
C549        C  0.28229716  0.98918506  0.84538742    -0.05900
C550        C  0.30553555  0.01833262  0.86184216    -0.33300
C551        C  0.32629435  0.01336896  0.89932849     0.35900
C552        C  0.32510034  0.97812166  0.92031796    -0.06200
C553        C  0.29966542  0.94979234  0.90563155    -0.33200
C554        C  0.27812016  0.95529610  0.86867279     0.35800
H555        H  0.30896192  0.04457219  0.84421726     0.16200
O556        O  0.34965268  0.04249179  0.91294055    -0.60700
H557        H  0.29803768  0.92255961  0.92101932     0.16200
O558        O  0.25578399  0.92616285  0.85300133    -0.60800
H559        H  0.23159206  0.92949991  0.86704148     0.43200
H560        H  0.33563894  0.05605752  0.93558547     0.43200
C561        C  0.31013191  0.99130442  0.68603521    -0.05900
C562        C  0.30062038  0.99551264  0.64144038    -0.33300
C563        C  0.32603374  0.99078211  0.60642198     0.35900
C564        C  0.36166801  0.98095613  0.61542754    -0.06200
C565        C  0.37143187  0.97815860  0.65987868    -0.33200
C566        C  0.34650799  0.98340115  0.69471847     0.35800
H567        H  0.27319423  0.00191570  0.63351405     0.16200
O568        O  0.31509169  0.49395428  0.56363384    -0.60700
H569        H  0.39865053  0.97112056  0.66797117     0.16200
O570        O  0.35788241  0.97871458  0.73714226    -0.60800
H571        H  0.37025243  0.00309843  0.74565210     0.43200
H572        H  0.32030310  0.52069726  0.55622696     0.43200
C573        C  0.03917894  0.98382602  0.87514711    -0.05900
C574        C  0.02898322  0.98618633  0.83074177    -0.33300
C575        C  0.05451615  0.98518416  0.79581874     0.35900
C576        C  0.09185131  0.98172979  0.80433555    -0.06200
C577        C  0.10201809  0.47814589  0.84875054    -0.33200
C578        C  0.07613009  0.47905816  0.88388372     0.35800
H579        H  0.00090134  0.98978656  0.82269254     0.16200
O580        O  0.04252179  0.98944550  0.75357469    -0.60700
H581        H  0.13021352  0.47485870  0.85645076     0.16200
O582        O  0.08756622  0.47630214  0.92656483    -0.60800
H583        H  0.08614473  0.44914226  0.93276654     0.43200
H584        H  0.03379732  0.96398925  0.74372176     0.43200
C585        C  0.11886310  0.98299521  0.64531057    -0.05900
C586        C  0.10832802  0.94874564  0.62508815    -0.33300
C587        C  0.08397162  0.94703703  0.58993930     0.35900
C588        C  0.06981189  0.98005267  0.57463287    -0.06200
C589        C  0.08331623  0.51465486  0.59241216    -0.33200
C590        C  0.10724438  0.51620584  0.62782802     0.35800
H591        H  0.11665252  0.92299622  0.63890153     0.16200
O592        O  0.07174292  0.91271777  0.57370903    -0.60700
H593        H  0.07281200  0.54045677  0.58165491     0.16200
O594        O  0.11578509  0.54985815  0.64831729    -0.60800
H595        H  0.13918480  0.55943920  0.63429157     0.43200
H596        H  0.08846037  0.90776971  0.54844506     0.43200
C597        C  0.63311876  0.98332586  0.19038522     0.79800
N598        N  0.66940971  0.48715516  0.19820744    -0.78500
C599        C  0.68122991  0.48836478  0.24070220     0.82200
N600        N  0.65636009  0.48620553  0.27516040    -0.78400
C601        C  0.61985892  0.98261429  0.26735685     0.82300
N602        N  0.60888334  0.98111018  0.22479409    -0.80200
C603        C  0.78220765  0.49329932  0.22303047     0.79800
N604        N  0.74576975  0.49227835  0.21501594    -0.78500
C605        C  0.72078103  0.49110455  0.24936387     0.83000
N606        N  0.73240412  0.49046723  0.29188106    -0.78400
C607        C  0.76860731  0.49196170  0.30008144     0.82300
N608        N  0.79300807  0.49343894  0.26573750    -0.80200
C609        C  0.95381525  0.14118784  0.22259710     0.79800
N610        N  0.96175447  0.13087877  0.26423146    -0.78500
C611        C  0.96105640  0.15524553  0.29866013     0.82200
N612        N  0.95187385  0.19057253  0.29187318    -0.78400
C613        C  0.94424853  0.20172121  0.25043031     0.82300
N614        N  0.94505526  0.17694910  0.21583261    -0.80200
C615        C  0.91914800  0.28752295  0.19541073     0.79800
N616        N  0.92899827  0.25231426  0.20180534    -0.78500
C617        C  0.93445573  0.24022204  0.24351222     0.82200
N618        N  0.93113917  0.26399488  0.27873676    -0.78400
C619        C  0.92170957  0.29955346  0.27247248     0.82300
N620        N  0.91565986  0.31076347  0.23061976    -0.80200
O621        O  0.97304363  0.00081499  0.08929097    -0.80600
O622        O  0.88051198  0.49380810  0.45931516    -0.80600
O623        O  0.00182152  0.06044807  0.47165557    -0.80600
O624        O  0.88457409  0.47918690  0.03997137    -0.80500
O625        O  0.94368431  0.04661566  0.45818554    -0.80700
O626        O  0.91481390  0.45174078  0.09004615    -0.80600
O627        O  0.85409405  0.43765016  0.47086540    -0.80600
O628        O  0.95354872  0.03752940  0.03922963    -0.80600
C629        C  0.96035494  0.03145084  0.07924401     1.09100
C630        C  0.85388452  0.46935529  0.45192663     1.09000
C631        C  0.97305099  0.06798882  0.45193630     1.09200
C632        C  0.88847147  0.47084619  0.08000979     1.09000
O633        O  0.95623834  0.39789309  0.04182182    -0.80600
O634        O  0.97897017  0.49443559  0.40025235    -0.80600
O635        O  0.52487589  0.00933738  0.03409963    -0.80600
O636        O  0.91878241  0.40547060  0.45209271    -0.80500
O637        O  0.92114689  0.44682241  0.40108643    -0.80600
O638        O  0.01681762  0.44896422  0.04300327    -0.80600
O639        O  0.89740752  0.40053807  0.03530080    -0.80500
O640        O  0.51784872  0.98878768  0.45113206    -0.80600
Co641      Co  0.96472815  0.45040201  0.06108716     1.51500
Co642      Co  0.93310081  0.49273783  0.43689406     1.51700
Co643      Co  0.98353421  0.01245550  0.49278229     1.51600
Co644      Co  0.90284984  0.44440810  0.49362478     1.51500
O645        O  0.95327759  0.46566407  0.49720641    -1.42500
C646        C  0.92433297  0.38306504  0.04773656     1.09100
C647        C  0.51089984  0.48859028  0.41073817     1.09200
C648        C  0.53662342  0.47906120  0.04737685     1.09100
C649        C  0.92022124  0.41305796  0.41175103     1.09100
C650        C  0.91953494  0.38342399  0.37687950    -0.05900
C651        C  0.92458599  0.34609433  0.38762889    -0.33300
C652        C  0.92492757  0.31815510  0.35457019     0.35900
C653        C  0.91987128  0.32723296  0.30970824    -0.06200
C654        C  0.91376510  0.36445031  0.29955388    -0.33200
C655        C  0.91346344  0.39214976  0.33226839     0.35800
H656        H  0.92873562  0.33853977  0.42172221     0.16200
O657        O  0.92974327  0.28214960  0.36674853    -0.60700
H658        H  0.90945289  0.37262679  0.26573179     0.16200
O659        O  0.90741511  0.42784510  0.31984294    -0.60800
H660        H  0.88057144  0.42910516  0.32135913     0.43200
H661        H  0.95645644  0.28096497  0.36934723     0.43200
C662        C  0.91600617  0.30251251  0.15062427    -0.05900
C663        C  0.94643589  0.30389104  0.12183920    -0.33300
C664        C  0.94819151  0.32743097  0.08499626     0.35900
C665        C  0.91893380  0.34964609  0.07631259    -0.06200
C666        C  0.88685604  0.34471160  0.10240955    -0.33200
C667        C  0.88545026  0.32166103  0.13965091     0.35800
H668        H  0.97016787  0.28930004  0.13005428     0.16200
O669        O  0.97989771  0.33099360  0.06014461    -0.60700
H670        H  0.86402322  0.36135275  0.09650357     0.16200
O671        O  0.85516204  0.32029310  0.16707954    -0.60800
H672        H  0.83992417  0.29801235  0.15714919     0.43200
H673        H  0.47655028  0.31227277  0.03591655     0.43200
C674        C  0.97284566  0.09909080  0.42031072    -0.05900
C675        C  0.93934338  0.11302882  0.40992790    -0.33300
C676        C  0.93607134  0.13445030  0.37200283     0.35900
C677        C  0.96634997  0.14163835  0.34349555    -0.06200
C678        C  0.00041621  0.13013323  0.35523027    -0.33200
C679        C  0.00396471  0.10936179  0.39377878     0.35800
H680        H  0.91508071  0.10533376  0.42973045     0.16200
O681        O  0.90238829  0.14487965  0.36063699    -0.60700
H682        H  0.02386770  0.13555217  0.33326783     0.16200
O683        O  0.03727814  0.09676490  0.40313482    -0.60800
H684        H  0.03865544  0.07314742  0.38604254     0.43200
H685        H  0.90054712  0.17002196  0.37404821     0.43200
C686        C  0.95441607  0.11317630  0.18552951    -0.05900
C687        C  0.94195549  0.12147857  0.14308784    -0.33300
C688        C  0.94307971  0.09537111  0.10793569     0.35900
C689        C  0.95655971  0.06005515  0.11489528    -0.06200
C690        C  0.96839012  0.05179781  0.15737599    -0.33200
C691        C  0.96745397  0.07752898  0.19215817     0.35800
H692        H  0.93144084  0.14834888  0.13695150     0.16200
O693        O  0.93069968  0.10467024  0.06725958    -0.60700
H694        H  0.97912193  0.02510581  0.16400889     0.16200
O695        O  0.48058105  0.06752272  0.23223419    -0.60800
H696        H  0.46038422  0.05204530  0.24675006     0.43200
H697        H  0.95248688  0.11561856  0.05083285     0.43200
C698        C  0.78229952  0.48916698  0.34541727    -0.05900
C699        C  0.80552682  0.51832432  0.36187007    -0.33300
C700        C  0.82630085  0.51336550  0.39934443     0.35900
C701        C  0.82512529  0.47811656  0.42032858    -0.06200
C702        C  0.79969897  0.44977788  0.40564620    -0.33200
C703        C  0.77814763  0.45527240  0.36869187     0.35800
H704        H  0.80893991  0.54456487  0.34424566     0.16200
O705        O  0.84966193  0.54249176  0.41294096    -0.60700
H706        H  0.79808893  0.42254256  0.42102671     0.16200
O707        O  0.75583754  0.42612401  0.35300692    -0.60800
H708        H  0.73163743  0.42944025  0.36703570     0.43200
H709        H  0.83565283  0.55606300  0.43558515     0.43200
C710        C  0.81014277  0.49113919  0.18608446    -0.05900
C711        C  0.80070782  0.49561654  0.14151041    -0.33300
C712        C  0.82612076  0.49089007  0.10649291     0.35900
C713        C  0.86167302  0.48080301  0.11547832    -0.06200
C714        C  0.87135694  0.47771069  0.15992324    -0.33200
C715        C  0.84643242  0.48293191  0.19476267     0.35800
H716        H  0.77334463  0.50224762  0.13359951     0.16200
O717        O  0.81526268  0.99453365  0.06372212    -0.60700
H718        H  0.89850632  0.47044921  0.16801064     0.16200
O719        O  0.85770140  0.47790866  0.23716593    -0.60800
H720        H  0.87021873  0.50216328  0.24589166     0.43200
H721        H  0.82069681  0.02129642  0.05656415     0.43200
C722        C  0.53921072  0.48381316  0.37514613    -0.05900
C723        C  0.52902582  0.48626807  0.33074730    -0.33300
C724        C  0.55455633  0.48527355  0.29582294     0.35900
C725        C  0.59187774  0.48173075  0.30433117    -0.06200
C726        C  0.60202369  0.97806063  0.34876967    -0.33200
C727        C  0.57614660  0.97899821  0.38390843     0.35800
H728        H  0.50095706  0.48994507  0.32270606     0.16200
O729        O  0.54257797  0.48963817  0.25359033    -0.60700
H730        H  0.63025599  0.97499966  0.35648360     0.16200
O731        O  0.58763351  0.97652100  0.42660228    -0.60800
H732        H  0.58632859  0.94939768  0.43300220     0.43200
H733        H  0.53379130  0.46421701  0.24368039     0.43200
C734        C  0.61888525  0.48314880  0.14531127    -0.05900
C735        C  0.60843730  0.44890641  0.12501628    -0.33300
C736        C  0.58406006  0.44717995  0.08988745     0.35900
C737        C  0.56979587  0.48017010  0.07466956    -0.06200
C738        C  0.58327289  0.01467909  0.09241438    -0.33200
C739        C  0.60720835  0.01623566  0.12782623     0.35800
H740        H  0.61684398  0.42316521  0.13876228     0.16200
O741        O  0.57192263  0.41285751  0.07358263    -0.60700
H742        H  0.57277391  0.04047998  0.08164494     0.16200
O743        O  0.61576392  0.04989227  0.14829872    -0.60800
H744        H  0.63913597  0.05948726  0.13421621     0.43200
H745        H  0.58863951  0.40800953  0.04828423     0.43200
C746        C  0.63312374  0.98325498  0.69038523     0.79800
N747        N  0.66940612  0.48708673  0.69820577    -0.78500
C748        C  0.68123203  0.48838023  0.74069726     0.82200
N749        N  0.65636485  0.48629692  0.77516130    -0.78400
C750        C  0.61986856  0.98271312  0.76735944     0.82300
N751        N  0.60888871  0.98111619  0.72479854    -0.80200
C752        C  0.78221530  0.49338829  0.72299599     0.79800
N753        N  0.74577269  0.49234817  0.71499426    -0.78500
C754        C  0.72078732  0.49113347  0.74934869     0.83000
N755        N  0.73241822  0.49046785  0.79186074    -0.78400
C756        C  0.76862356  0.49196723  0.80005093     0.82300
N757        N  0.79301936  0.49348796  0.76570078    -0.80200
C758        C  0.95384855  0.14120564  0.72258718     0.79800
N759        N  0.96176892  0.13088882  0.76422442    -0.78500
C760        C  0.96103979  0.15524413  0.79866169     0.82200
N761        N  0.95184835  0.19056911  0.79187847    -0.78400
C762        C  0.94424251  0.20172601  0.75043166     0.82300
N763        N  0.94507734  0.17696379  0.71582645    -0.80200
C764        C  0.91914351  0.28753881  0.69542564     0.79800
N765        N  0.92900550  0.25233174  0.70180992    -0.78500
C766        C  0.93444086  0.24022510  0.74351788     0.82200
N767        N  0.93108869  0.26398087  0.77875192    -0.78400
C768        C  0.92164607  0.29953555  0.77249705     0.82300
N769        N  0.91561991  0.31075930  0.73064538    -0.80200
O770        O  0.97309651  0.00083412  0.58928298    -0.80600
O771        O  0.88049176  0.49375744  0.95934583    -0.80600
O772        O  0.00175025  0.06046170  0.97169932    -0.80600
O773        O  0.88459427  0.47922925  0.53993473    -0.80500
O774        O  0.94362384  0.04660349  0.95819231    -0.80700
O775        O  0.91481678  0.45180718  0.59005162    -0.80600
O776        O  0.85406467  0.43760728  0.97088965    -0.80600
O777        O  0.95362639  0.03755811  0.53921576    -0.80600
C778        C  0.96042906  0.03147841  0.57923105     1.09100
C779        C  0.85386962  0.46930663  0.95193408     1.09000
C780        C  0.97298717  0.06798391  0.95195434     1.09200
C781        C  0.88848203  0.47091435  0.57998270     1.09000
O782        O  0.95622494  0.39791066  0.54184475    -0.80600
O783        O  0.97893818  0.49445549  0.90024619    -0.80600
O784        O  0.52493472  0.00930740  0.53407183    -0.80600
O785        O  0.91875348  0.40545065  0.95210241    -0.80500
O786        O  0.92113300  0.44679816  0.90108774    -0.80600
O787        O  0.01682146  0.44894390  0.54300725    -0.80600
O788        O  0.89740094  0.40058089  0.53530668    -0.80500
O789        O  0.51782406  0.98883837  0.95113542    -0.80600
Co790      Co  0.96473629  0.45042101  0.56109622     1.51500
Co791      Co  0.93307029  0.49271925  0.93689383     1.51700
Co792      Co  0.98348148  0.01245894  0.99279607     1.51600
Co793      Co  0.90282716  0.44437979  0.99364090     1.51500
O794        O  0.95325798  0.46564747  0.99720028    -1.42500
C795        C  0.92431511  0.38309744  0.54775510     1.09100
C796        C  0.51087815  0.48866245  0.91074394     1.09200
C797        C  0.53665443  0.47901259  0.54735038     1.09100
C798        C  0.92018603  0.41303439  0.91176142     1.09100
C799        C  0.91946235  0.38339354  0.87690334    -0.05900
C800        C  0.92460064  0.34608127  0.88764206    -0.33300
C801        C  0.92492818  0.31814016  0.85458658     0.35900
C802        C  0.91977336  0.32720060  0.80974109    -0.06200
C803        C  0.91355255  0.36439414  0.79960664    -0.33200
C804        C  0.91326208  0.39209451  0.83231914     0.35800
H805        H  0.92883894  0.33854509  0.92172103     0.16200
O806        O  0.92984010  0.28215224  0.86675106    -0.60700
H807        H  0.90914515  0.37255255  0.76580109     0.16200
O808        O  0.90709475  0.42776617  0.81991957    -0.60800
H809        H  0.88024841  0.42897371  0.82159085     0.43200
H810        H  0.95656609  0.28102172  0.86926625     0.43200
C811        C  0.91598648  0.30254394  0.65064653    -0.05900
C812        C  0.94638159  0.30387082  0.62180658    -0.33300
C813        C  0.94813129  0.32741535  0.58496535     0.35900
C814        C  0.91890125  0.34968366  0.57633749    -0.06200
C815        C  0.88685274  0.34480703  0.60249402    -0.33200
C816        C  0.88545459  0.32175598  0.63973355     0.35800
H817        H  0.97009635  0.28923410  0.62997433     0.16200
O818        O  0.97980860  0.33092427  0.56005378    -0.60700
H819        H  0.86404448  0.36149425  0.59663509     0.16200
O820        O  0.85520370  0.32045170  0.66722207    -0.60800
H821        H  0.83991429  0.29819417  0.65732924     0.43200
H822        H  0.47636297  0.31222013  0.53581025     0.43200
C823        C  0.97279849  0.09906741  0.92030525    -0.05900
C824        C  0.93931591  0.11306089  0.90995048    -0.33300
C825        C  0.93605998  0.13449712  0.87203220     0.35900
C826        C  0.96633040  0.14162809  0.84349497    -0.06200
C827        C  0.00037770  0.13005128  0.85519383    -0.33200
C828        C  0.00391349  0.10927427  0.89373898     0.35800
H829        H  0.91505651  0.10540845  0.92977812     0.16200
O830        O  0.90239435  0.14500103  0.86070540    -0.60700
H831        H  0.02382186  0.13542179  0.83320730     0.16200
O832        O  0.03720548  0.09660856  0.90306019    -0.60800
H833        H  0.03854623  0.07301092  0.88592048     0.43200
H834        H  0.90062048  0.17015627  0.87410681     0.43200
C835        C  0.95448041  0.11320368  0.68551358    -0.05900
C836        C  0.94195709  0.12147597  0.64309290    -0.33300
C837        C  0.94309277  0.09537007  0.60794048     0.35900
C838        C  0.95665046  0.06008781  0.61487854    -0.06200
C839        C  0.96855646  0.05186409  0.65733527    -0.33200
C840        C  0.96760410  0.07759208  0.69211978     0.35800
H841        H  0.93137584  0.14831801  0.63697641     0.16200
O842        O  0.93063670  0.10463174  0.56728898    -0.60700
H843        H  0.97935545  0.02520096  0.66394796     0.16200
O844        O  0.48086103  0.06764315  0.73216169    -0.60800
H845        H  0.46075827  0.05202677  0.74666660     0.43200
H846        H  0.95237921  0.11564215  0.55082862     0.43200
C847        C  0.78232530  0.48914695  0.84538075    -0.05900
C848        C  0.80556050  0.51829276  0.86184447    -0.33300
C849        C  0.82632690  0.51332001  0.89932153     0.35900
C850        C  0.82513554  0.47806809  0.92030102    -0.06200
C851        C  0.79971002  0.44973628  0.90559965    -0.33200
C852        C  0.77816421  0.45524602  0.86864329     0.35800
H853        H  0.80898133  0.54453789  0.84423038     0.16200
O854        O  0.84969208  0.54243830  0.91293094    -0.60700
H855        H  0.79809000  0.42249838  0.92097431     0.16200
O856        O  0.75584377  0.42610894  0.85295103    -0.60800
H857        H  0.73163842  0.42944969  0.86695287     0.43200
H858        H  0.83567157  0.55602899  0.93554607     0.43200
C859        C  0.81015384  0.49128689  0.68603360    -0.05900
C860        C  0.80063695  0.49548355  0.64143924    -0.33300
C861        C  0.82604559  0.49074237  0.60641987     0.35900
C862        C  0.86168015  0.48091801  0.61542497    -0.06200
C863        C  0.87145061  0.47813521  0.65987526    -0.33200
C864        C  0.84653155  0.48338910  0.69471606     0.35800
H865        H  0.77320975  0.50188372  0.63351395     0.16200
O866        O  0.81509934  0.99405931  0.56363443    -0.60700
H867        H  0.89867104  0.47110175  0.66796644     0.16200
O868        O  0.85791293  0.47872136  0.73714057    -0.60800
H869        H  0.87028361  0.50310930  0.74563364     0.43200
H870        H  0.82034361  0.02080548  0.55626453     0.43200
C871        C  0.53920505  0.48396488  0.87514827    -0.05900
C872        C  0.52904814  0.48656093  0.83075392    -0.33300
C873        C  0.55458578  0.48558214  0.79583395     0.35900
C874        C  0.59188422  0.48190099  0.80434051    -0.06200
C875        C  0.60201549  0.97815526  0.84876838    -0.33200
C876        C  0.57613274  0.97908377  0.88390350     0.35800
H877        H  0.50099688  0.49032992  0.82271456     0.16200
O878        O  0.54264508  0.49009946  0.75361213    -0.60700
H879        H  0.63023453  0.97501500  0.85647992     0.16200
O880        O  0.58760130  0.97651826  0.92659457    -0.60800
H881        H  0.58627095  0.94938269  0.93292693     0.43200
H882        H  0.53367652  0.46474742  0.74365842     0.43200
C883        C  0.61888187  0.48303548  0.64531495    -0.05900
C884        C  0.60840224  0.44879328  0.62503755    -0.33300
C885        C  0.58404120  0.44708351  0.58989061     0.35900
C886        C  0.56982524  0.48008949  0.57464200    -0.06200
C887        C  0.58334695  0.01460347  0.59235947    -0.33200
C888        C  0.60726815  0.01614824  0.62778383     0.35800
H889        H  0.61677202  0.42304567  0.63880655     0.16200
O890        O  0.57186696  0.41276696  0.57360158    -0.60700
H891        H  0.57288564  0.04041456  0.58156269     0.16200
O892        O  0.61585557  0.04980768  0.64823415    -0.60800
H893        H  0.63925253  0.05935713  0.63417527     0.43200
H894        H  0.58856278  0.40790178  0.54828800     0.43200
C895        C  0.63314388  0.48336719  0.19036809     0.79800
N896        N  0.66938389  0.98713160  0.19822729    -0.78500
C897        C  0.68120262  0.98832916  0.24072298     0.82200
N898        N  0.65633127  0.98613928  0.27517893    -0.78400
C899        C  0.61988720  0.48270197  0.26734086     0.82300
N900        N  0.60890905  0.48118398  0.22477898    -0.80200
C901        C  0.78218324  0.99329207  0.22306052     0.79800
N902        N  0.74574507  0.99225267  0.21504190    -0.78500
C903        C  0.72075443  0.99109054  0.24938791     0.83000
N904        N  0.73237670  0.99048488  0.29190775    -0.78400
C905        C  0.76858031  0.99200420  0.30011336     0.82300
N906        N  0.79298304  0.99346846  0.26577012    -0.80200
C907        C  0.95375419  0.64116164  0.22264841     0.79800
N908        N  0.96170168  0.63086161  0.26428291    -0.78500
C909        C  0.96104683  0.65524412  0.29869824     0.82200
N910        N  0.95189201  0.69058003  0.29190018    -0.78400
C911        C  0.94425989  0.70172448  0.25045637     0.82300
N912        N  0.94502882  0.67693481  0.21586999    -0.80200
C913        C  0.91912267  0.78752612  0.19543916     0.79800
N914        N  0.92901372  0.75232910  0.20182832    -0.78500
C915        C  0.93445544  0.74022796  0.24353808     0.82200
N916        N  0.93107967  0.76398340  0.27877206    -0.78400
C917        C  0.92160399  0.79952851  0.27251391     0.82300
N918        N  0.91557262  0.81074292  0.23065872    -0.80200
O919        O  0.97301823  0.50078723  0.08933848    -0.80600
O920        O  0.88051135  0.99386478  0.45931326    -0.80600
O921        O  0.00176834  0.56048623  0.47174599    -0.80600
O922        O  0.88458047  0.97924645  0.04000415    -0.80500
O923        O  0.94364354  0.54660516  0.45825928    -0.80700
O924        O  0.91482254  0.95178528  0.09006327    -0.80600
O925        O  0.85405471  0.93772935  0.47092294    -0.80600
O926        O  0.95350034  0.53749365  0.03928743    -0.80600
C927        C  0.96029234  0.53140714  0.07930426     1.09100
C928        C  0.85386106  0.96942719  0.45196240     1.09000
C929        C  0.97299572  0.56799981  0.45201179     1.09200
C930        C  0.88847756  0.97089196  0.08003955     1.09000
O931        O  0.95620709  0.89790672  0.04183626    -0.80600
O932        O  0.97895957  0.99435999  0.40021804    -0.80600
O933        O  0.52488094  0.50935836  0.03409962    -0.80600
O934        O  0.91870096  0.90548535  0.45212130    -0.80500
O935        O  0.92108349  0.94681623  0.40109163    -0.80600
O936        O  0.01679846  0.94895388  0.04295187    -0.80600
O937        O  0.89737621  0.90058133  0.03533965    -0.80500
O938        O  0.51786770  0.48881060  0.45112274    -0.80600
Co939      Co  0.96472288  0.95042102  0.06107230     1.51500
Co940      Co  0.93309353  0.99273654  0.43686992     1.51700
Co941      Co  0.98351465  0.51246833  0.49283221     1.51600
Co942      Co  0.90282030  0.94445101  0.49365222     1.51500
O943        O  0.95326071  0.96567339  0.49719310    -1.42500
C944        C  0.92429738  0.88309426  0.04776499     1.09100
C945        C  0.51088206  0.98856122  0.41074762     1.09200
C946        C  0.53660208  0.97903437  0.04738254     1.09100
C947        C  0.92012278  0.91305446  0.41177437     1.09100
C948        C  0.91938365  0.88340437  0.37691739    -0.05900
C949        C  0.92441007  0.84607103  0.38767661    -0.33300
C950        C  0.92474078  0.81812432  0.35462338     0.35900
C951        C  0.91970996  0.82720030  0.30975565    -0.06200
C952        C  0.91359132  0.86441509  0.29959813    -0.33200
C953        C  0.91329227  0.89211990  0.33230806     0.35800
H954        H  0.92855584  0.83852030  0.42177201     0.16200
O955        O  0.92952146  0.78211369  0.36681122    -0.60700
H956        H  0.90927878  0.87258806  0.26577487     0.16200
O957        O  0.90723543  0.92781214  0.31987847    -0.60800
H958        H  0.88039195  0.92907077  0.32141425     0.43200
H959        H  0.95622671  0.78092002  0.36948969     0.43200
C960        C  0.91597209  0.80253064  0.15065461    -0.05900
C961        C  0.94637879  0.80387789  0.12183132    -0.33300
C962        C  0.94813148  0.82742538  0.08499170     0.35900
C963        C  0.91889185  0.84967629  0.07634544    -0.06200
C964        C  0.88683337  0.84477610  0.10248087    -0.33200
C965        C  0.88543221  0.82172295  0.13971976     0.35800
H966        H  0.97009933  0.78925577  0.13001278     0.16200
O967        O  0.97981958  0.83095497  0.06010237    -0.60700
H968        H  0.86401579  0.86144644  0.09660644     0.16200
O969        O  0.85516679  0.82039642  0.16718477    -0.60800
H970        H  0.83990746  0.79811609  0.15729755     0.43200
H971        H  0.47647219  0.81232429  0.03587700     0.43200
C972        C  0.97277587  0.59908526  0.42036396    -0.05900
C973        C  0.93925663  0.61294662  0.40990346    -0.33300
C974        C  0.93599589  0.63435950  0.37197057     0.35900
C975        C  0.96630813  0.64163293  0.34353979    -0.06200
C976        C  0.00038337  0.63019654  0.35534541    -0.33200
C977        C  0.00391564  0.60941980  0.39389522     0.35800
H978        H  0.91497667  0.60519808  0.42965068     0.16200
O979        O  0.90230184  0.64470160  0.36052229    -0.60700
H980        H  0.02385867  0.63567083  0.33343512     0.16200
O981        O  0.03724146  0.59688366  0.40331460    -0.60800
H982        H  0.03868860  0.57328323  0.38620520     0.43200
H983        H  0.90039239  0.66984955  0.37389181     0.43200
C984        C  0.95430070  0.61312255  0.18560021    -0.05900
C985        C  0.94189846  0.62144372  0.14313681    -0.33300
C986        C  0.94301175  0.59532792  0.10799113     0.35900
C987        C  0.95643589  0.55998890  0.11497177    -0.06200
C988        C  0.96816713  0.55169528  0.15748616    -0.33200
C989        C  0.96723219  0.57743075  0.19226658     0.35800
H990        H  0.93144713  0.64833944  0.13697482     0.16200
O991        O  0.93068312  0.60464544  0.06729617    -0.60700
H992        H  0.97882798  0.52497377  0.16414498     0.16200
O993        O  0.48043036  0.56748116  0.23226609    -0.60800
H994        H  0.46022527  0.55199630  0.24675487     0.43200
H995        H  0.95249255  0.61558653  0.05090683     0.43200
C996        C  0.78226971  0.98922661  0.34545547    -0.05900
C997        C  0.80549544  0.01838839  0.36190438    -0.33300
C998        C  0.82626504  0.01343770  0.39938665     0.35900
C999        C  0.82509317  0.97819116  0.42037541    -0.06200
C1000       C  0.79966329  0.94985220  0.40570230    -0.33200
C1001       C  0.77811146  0.95534035  0.36874644     0.35800
H1002       H  0.80890860  0.04462580  0.34427371     0.16200
O1003       O  0.84961475  0.04257042  0.41299116    -0.60700
H1004       H  0.79805171  0.92261981  0.42108999     0.16200
O1005       O  0.75579442  0.92619178  0.35307548    -0.60800
H1006       H  0.73160846  0.92948864  0.36715257     0.43200
H1007       H  0.83561335  0.05610540  0.43567637     0.43200
C1008       C  0.81012105  0.99111718  0.18611865    -0.05900
C1009       C  0.80071268  0.99566901  0.14154818    -0.33300
C1010       C  0.82613439  0.99096092  0.10653363     0.35900
C1011       C  0.86167045  0.98082155  0.11551614    -0.06200
C1012       C  0.87132337  0.97763902  0.15996156    -0.33200
C1013       C  0.84638807  0.98283336  0.19479837     0.35800
H1014       H  0.77336474  0.00235199  0.13363772     0.16200
O1015       O  0.81522511  0.49438699  0.06367960    -0.60700
H1016       H  0.89845478  0.97032280  0.16805083     0.16200
O1017       O  0.85761812  0.97770043  0.23719603    -0.60800
H1018       H  0.87018432  0.00191146  0.24599300     0.43200
H1019       H  0.82062155  0.52114449  0.05646826     0.43200
C1020       C  0.53918636  0.98373719  0.37516207    -0.05900
C1021       C  0.52898353  0.98608007  0.33075814    -0.33300
C1022       C  0.55451004  0.98506053  0.29583255     0.35900
C1023       C  0.59184723  0.98161754  0.30434644    -0.06200
C1024       C  0.60203957  0.47808508  0.34874683    -0.33200
C1025       C  0.57616030  0.47901049  0.38388572     0.35800
H1026       H  0.50090211  0.98968592  0.32271182     0.16200
O1027       O  0.54250652  0.98929739  0.25358848    -0.60700
H1028       H  0.63026162  0.47495725  0.35645459     0.16200
O1029       O  0.58763503  0.47645354  0.42657525    -0.60800
H1030       H  0.58631148  0.44931903  0.43291268     0.43200
H1031       H  0.53384008  0.96382519  0.24372974     0.43200
C1032       C  0.61886014  0.98310096  0.14532791    -0.05900
C1033       C  0.60837436  0.94885481  0.12506638    -0.33300
C1034       C  0.58399782  0.94713095  0.08993779     0.35900
C1035       C  0.56977042  0.98012831  0.07468407    -0.06200
C1036       C  0.58326404  0.51472102  0.09243001    -0.33200
C1037       C  0.60719865  0.51627977  0.12784101     0.35800
H1038       H  0.61675223  0.92311156  0.13883840     0.16200
O1039       O  0.57182357  0.91280756  0.07367005    -0.60700
H1040       H  0.57273695  0.54051603  0.08168698     0.16200
O1041       O  0.61572014  0.54993027  0.14834382    -0.60800
H1042       H  0.63909176  0.55955112  0.13428190     0.43200
H1043       H  0.58855155  0.90790764  0.04840023     0.43200
C1044       C  0.63313979  0.48327415  0.69037342     0.79800
N1045       N  0.66938923  0.98708132  0.69822182    -0.78500
C1046       C  0.68121250  0.98835809  0.74071479     0.82200
N1047       N  0.65634270  0.98624196  0.77517568    -0.78400
C1048       C  0.61989011  0.48278658  0.76734892     0.82300
N1049       N  0.60890640  0.48117030  0.72478962    -0.80200
C1050       C  0.78219968  0.99338972  0.72302675     0.79800
N1051       N  0.74575697  0.99233434  0.71501975    -0.78500
C1052       C  0.72076835  0.99112823  0.74937096     0.83000
N1053       N  0.73239676  0.99048819  0.79188579    -0.78400
C1054       C  0.76860192  0.99200819  0.80008308     0.82300
N1055       N  0.79300141  0.99351870  0.76573489    -0.80200
C1056       C  0.95378110  0.64118147  0.72263796     0.79800
N1057       N  0.96170529  0.63087259  0.76427626    -0.78500
C1058       C  0.96101697  0.65524302  0.79870045     0.82200
N1059       N  0.95185519  0.69057738  0.79190575    -0.78400
C1060       C  0.94424588  0.70173086  0.75045729     0.82300
N1061       N  0.94504548  0.67695179  0.71586280    -0.80200
C1062       C  0.91911334  0.78754464  0.69545433     0.79800
N1063       N  0.92901199  0.75234780  0.70183288    -0.78500
C1064       C  0.93443569  0.74023337  0.74354304     0.82200
N1065       N  0.93103268  0.76397408  0.77878560    -0.78400
C1066       C  0.92154875  0.79951683  0.77253670     0.82300
N1067       N  0.91553674  0.81074406  0.73068353    -0.80200
O1068       O  0.97306394  0.50080502  0.58933426    -0.80600
O1069       O  0.88048688  0.99381313  0.95934831    -0.80600
O1070       O  0.00170086  0.56050036  0.97178308    -0.80600
O1071       O  0.88460649  0.97929584  0.53996423    -0.80500
O1072       O  0.94358694  0.54658972  0.95826275    -0.80700
O1073       O  0.91482913  0.95185860  0.59006767    -0.80600
O1074       O  0.85402516  0.93768210  0.97094632    -0.80600
O1075       O  0.95357192  0.53752176  0.53927684    -0.80600
C1076       C  0.96036018  0.53143393  0.57929447     1.09100
C1077       C  0.85384301  0.96937590  0.95197364     1.09000
C1078       C  0.97293410  0.56799354  0.95202486     1.09200
C1079       C  0.88849387  0.97096935  0.58000993     1.09000
O1080       O  0.95619290  0.89792573  0.54186019    -0.80600
O1081       O  0.97892511  0.99438243  0.90021765    -0.80600
O1082       O  0.52494077  0.50932277  0.53406738    -0.80600
O1083       O  0.91867632  0.90546765  0.95212930    -0.80500
O1084       O  0.92106792  0.94679645  0.90109437    -0.80600
O1085       O  0.01680413  0.94893132  0.54295231    -0.80600
O1086       O  0.89736915  0.90062933  0.53534873    -0.80500
O1087       O  0.51784013  0.48886241  0.95113155    -0.80600
Co1088     Co  0.96473394  0.95044154  0.56107918     1.51500
Co1089     Co  0.93305961  0.99272036  0.93687413     1.51700
Co1090     Co  0.98346693  0.51247161  0.99284092     1.51600
Co1091     Co  0.90279614  0.94442032  0.99366912     1.51500
O1092       O  0.95323738  0.96565738  0.99719085    -1.42500
C1093       C  0.92427811  0.88313043  0.54778652     1.09100
C1094       C  0.51086301  0.98862825  0.91074777     1.09200
C1095       C  0.53663468  0.97899283  0.54736058     1.09100
C1096       C  0.92009254  0.91303538  0.91178370     1.09100
C1097       C  0.91932399  0.88338072  0.87693836    -0.05900
C1098       C  0.92444438  0.84606613  0.88768577    -0.33300
C1099       C  0.92476218  0.81811796  0.85463584     0.35900
C1100       C  0.91962728  0.82717559  0.80978553    -0.06200
C1101       C  0.91339259  0.86436624  0.79964801    -0.33200
C1102       C  0.91310380  0.89207171  0.83235611     0.35800
H1103       H  0.92868144  0.83853417  0.92176638     0.16200
O1104       O  0.92964420  0.78212583  0.86680938    -0.60700
H1105       H  0.90898258  0.87252066  0.76584167     0.16200
O1106       O  0.90692538  0.92773982  0.81995314    -0.60800
H1107       H  0.88007886  0.92894291  0.82164008     0.43200
H1108       H  0.95636301  0.78098976  0.86940247     0.43200
C1109       C  0.91594689  0.80256416  0.65067773    -0.05900
C1110       C  0.94631940  0.80385982  0.62180085    -0.33300
C1111       C  0.94806791  0.82741326  0.58496456     0.35900
C1112       C  0.91885674  0.84971821  0.57637385    -0.06200
C1113       C  0.88682705  0.84487644  0.60256803    -0.33200
C1114       C  0.88543211  0.82182160  0.63980406     0.35800
H1115       H  0.97002210  0.78919123  0.62993536     0.16200
O1116       O  0.97972819  0.83088966  0.56001765    -0.60700
H1117       H  0.86403482  0.86159385  0.59674073     0.16200
O1118       O  0.85520402  0.82055901  0.66732875    -0.60800
H1119       H  0.83989231  0.79830296  0.65747781     0.43200
H1120       H  0.47629035  0.81227276  0.53576786     0.43200
C1121       C  0.97272519  0.59906202  0.92035621    -0.05900
C1122       C  0.93922132  0.61296935  0.90992240    -0.33300
C1123       C  0.93597206  0.63439635  0.87199690     0.35900
C1124       C  0.96627647  0.64162329  0.84353932    -0.06200
C1125       C  0.00033654  0.63012595  0.85531114    -0.33200
C1126       C  0.00386014  0.60934301  0.89385620     0.35800
H1127       H  0.91494520  0.60525582  0.92969242     0.16200
O1128       O  0.90229191  0.64480208  0.86058520    -0.60700
H1129       H  0.02380467  0.63556007  0.83337898     0.16200
O1130       O  0.03716834  0.59674762  0.90324208    -0.60800
H1131       H  0.03858595  0.57316825  0.88608438     0.43200
H1132       H  0.90044100  0.66996151  0.87394610     0.43200
C1133       C  0.95436237  0.61315266  0.68558353    -0.05900
C1134       C  0.94190159  0.62144489  0.64313947    -0.33300
C1135       C  0.94302649  0.59532995  0.60799441     0.35900
C1136       C  0.95652210  0.56002206  0.61495689    -0.06200
C1137       C  0.96832679  0.55176184  0.65744835    -0.33200
C1138       C  0.96737840  0.57749595  0.69222931     0.35800
H1139       H  0.93138709  0.64831382  0.63699527     0.16200
O1140       O  0.93062905  0.60461244  0.56732118    -0.60700
H1141       H  0.97905221  0.52506803  0.66408882     0.16200
O1142       O  0.48064629  0.56756694  0.73221272    -0.60800
H1143       H  0.46051656  0.55195978  0.74667727     0.43200
H1144       H  0.95239738  0.61561347  0.55090303     0.43200
C1145       C  0.78229743  0.98920328  0.84542045    -0.05900
C1146       C  0.80552504  0.01835549  0.86188705    -0.33300
C1147       C  0.82628261  0.01339136  0.89937569     0.35900
C1148       C  0.82509853  0.97813995  0.92035446    -0.06200
C1149       C  0.79967311  0.94980631  0.90565748    -0.33200
C1150       C  0.77812916  0.95530987  0.86869763     0.35800
H1151       H  0.80894435  0.04459913  0.84426993     0.16200
O1152       O  0.84962900  0.04251901  0.91300226    -0.60700
H1153       H  0.79805291  0.92257034  0.92103688     0.16200
O1154       O  0.75580292  0.92617280  0.85301674    -0.60800
H1155       H  0.73161033  0.92949491  0.86706306     0.43200
H1156       H  0.83561134  0.05606550  0.93566106     0.43200
C1157       C  0.81014188  0.99128020  0.68606733    -0.05900
C1158       C  0.80064425  0.99553140  0.64147485    -0.33300
C1159       C  0.82606055  0.99080889  0.60645716     0.35900
C1160       C  0.86168530  0.98095139  0.61545961    -0.06200
C1161       C  0.87143330  0.97810184  0.65991109    -0.33200
C1162       C  0.84650477  0.98333055  0.69475078     0.35800
H1163       H  0.77322693  0.00196588  0.63354940     0.16200
O1164       O  0.81506762  0.49393765  0.56359620    -0.60700
H1165       H  0.89864185  0.97103129  0.66800350     0.16200
O1166       O  0.85785792  0.97858068  0.73717173    -0.60800
H1167       H  0.87026720  0.00293606  0.74571736     0.43200
H1168       H  0.82029292  0.52067777  0.55618396     0.43200
C1169       C  0.53918442  0.98388622  0.87515857    -0.05900
C1170       C  0.52900935  0.98636949  0.83075859    -0.33300
C1171       C  0.55454369  0.98537128  0.79583744     0.35900
C1172       C  0.59185928  0.98179597  0.80434999    -0.06200
C1173       C  0.60202568  0.47817182  0.84875107    -0.33200
C1174       C  0.57614152  0.47909327  0.88388631     0.35800
H1175       H  0.50094453  0.99006312  0.82271363     0.16200
O1176       O  0.54257658  0.98976003  0.75360398    -0.60700
H1177       H  0.63023364  0.47496043  0.85645598     0.16200
O1178       O  0.58759755  0.47644719  0.92657288    -0.60800
H1179       H  0.58624479  0.44930063  0.93284359     0.43200
H1180       H  0.53373434  0.96435450  0.74369911     0.43200
C1181       C  0.61886718  0.98300619  0.64532540    -0.05900
C1182       C  0.60834779  0.94875804  0.62508798    -0.33300
C1183       C  0.58398491  0.94704681  0.58994392     0.35900
C1184       C  0.56980465  0.98005806  0.57465587    -0.06200
C1185       C  0.58332976  0.51463288  0.59238448    -0.33200
C1186       C  0.60724678  0.51617561  0.62781103     0.35800
H1187       H  0.61668872  0.92300999  0.63888702     0.16200
O1188       O  0.57177221  0.91272752  0.57369899    -0.60700
H1189       H  0.57283993  0.54043919  0.58161831     0.16200
O1190       O  0.61579549  0.54982609  0.64830051    -0.60800
H1191       H  0.63919215  0.55940612  0.63426651     0.43200
H1192       H  0.58848199  0.90780347  0.54841920     0.43200
loop_ 
_geom_bond_atom_site_label_1 
_geom_bond_atom_site_label_2 
_geom_bond_distance 
_geom_bond_site_symmetry_2 
_ccdc_geom_bond_type 
C1            N6   1.353       .  A
C1          N300   1.358       .  A
C1          C436   1.469       .  S
N2            C3   1.363       .  A
N2          C299   1.358       .  A
C3            N4   1.369       .  A
C3            C9   1.481       .  S
N4          C303   1.365       .  A
C5            N6   1.355       .  A
C5          N302   1.365       .  A
C5          C427   1.501       .  S
C7            N8   1.366       .  A
C7           N12   1.357       .  A
C7          C114   1.505       .  S
N8            C9   1.369       .  A
C9           N10   1.363       .  A
N10          C11   1.358       .  A
C11          N12   1.355       .  A
C11         C102   1.476       .  S
C13          N14   1.357       .  A
C13          N18   1.363       .  A
C13          C90   1.498       .  S
N14          C15   1.353       .  A
C15          N16   1.353       .  A
C15          C81   1.465       .  S
N16          C17   1.358       .  A
C17          N18   1.366       .  A
C17          C21   1.470       .  S
C19          N20   1.355       .  A
C19          N24   1.354       .  A
C19          C66   1.470       .  S
N20          C21   1.359       .  A
C21          N22   1.366       .  A
N22          C23   1.362       .  A
C23          N24   1.357       .  A
C23          C57   1.497       .  S
O25          C33   1.266       .  A
O25        Co343   1.999   1_545  S
O26          C34   1.290       .  A
O26         Co46   2.038       .  S
O27          C35   1.273       .  A
O27         Co47   1.914       .  S
O28          C36   1.261       .  A
O28        Co197   2.003   1_554  S
O29          C35   1.292       .  A
O29        Co344   2.046   1_545  S
O30          C36   1.270       .  A
O30         Co45   2.019       .  S
O31          C34   1.279       .  A
O31         Co48   1.934       .  S
O32          C33   1.263       .  A
O32        Co196   2.008   1_554  S
C33          C93   1.491       .  S
C34         C105   1.492       .  S
C35          C78   1.476       .  S
C36         C117   1.497       .  S
O37          C50   1.264       .  A
O37         Co45   1.973       .  S
O38         C647   1.256       .  A
O38         Co46   1.994       .  S
O39         C350   1.269   1_545  A
O39        Co792   2.000   1_454  S
O40          C53   1.249       .  A
O40         Co48   1.979       .  S
O41          C53   1.254       .  A
O41         Co46   1.991       .  S
O42         C648   1.267       .  A
O42         Co45   1.985       .  S
O43          C50   1.275       .  A
O43        Co197   2.019   1_554  S
O44         C349   1.251       .  A
O44        Co643   1.990   1_465  S
Co45        O323   1.999       .  S
Co45        O198   2.070   1_554  S
Co46        O327   2.046       .  S
Co46         O49   2.237       .  S
Co47        O181   2.008       .  S
Co47        O784   2.000       .  S
Co47        O640   1.990   1_545  S
Co47        O347   1.952   1_545  S
Co48        O177   2.003       .  S
Co48        O192   2.019       .  S
Co48         O49   1.961       .  S
O49        Co194   2.070       .  S
O49        Co345   1.952       .  S
C50          C69   1.483       .  S
C51         C126   1.497       .  S
C51         O634   1.256   1_455  A
C51         O342   1.251       .  A
C52         C141   1.486       .  S
C52         O337   1.269       .  A
C52         O638   1.267       .  A
C53          C54   1.489       .  S
C54          C55   1.407       .  A
C54          C59   1.412       .  A
C55          C56   1.409       .  A
C55          H60   1.083       .  S
C56          C57   1.415       .  A
C56          O61   1.371       .  S
C57          C58   1.408       .  A
C58          C59   1.395       .  A
C58          H62   1.083       .  S
C59          O63   1.373       .  S
O61          H65   0.992       .  S
O63          H64   0.992       .  S
C66          C67   1.400       .  A
C66          C71   1.406       .  A
C67          C68   1.400       .  A
C67          H72   1.084       .  S
C68          C69   1.415       .  A
C68          O73   1.371       .  S
C69          C70   1.406       .  A
C70          C71   1.400       .  A
C70          H74   1.083       .  S
C71          O75   1.371       .  S
O73         H673   0.991       .  S
O75          H76   0.992       .  S
H77         O669   0.991       .  S
C78          C79   1.406       .  A
C78          C83   1.412       .  A
C79          C80   1.397       .  A
C79          H84   1.084       .  S
C80          C81   1.403       .  A
C80          O85   1.371       .  S
C81          C82   1.401       .  A
C82          C83   1.401       .  A
C82          H86   1.084       .  S
C83          O87   1.372       .  S
O85          H89   0.992       .  S
O87          H88   0.992       .  S
C90          C91   1.412       .  A
C90          C95   1.415       .  A
C91          C92   1.411       .  A
C91          H96   1.083       .  S
C92          C93   1.412       .  A
C92          O97   1.371       .  S
C93          C94   1.404       .  A
C94          C95   1.393       .  A
C94          H98   1.084       .  S
C95         O695   1.372       .  S
O97         H101   0.992       .  S
O99         C691   1.372       .  S
O99         H100   0.992       .  S
C102        C103   1.398       .  A
C102        C107   1.407       .  A
C103        C104   1.399       .  A
C103        H108   1.084       .  S
C104        C105   1.417       .  A
C104        O109   1.372       .  S
C105        C106   1.408       .  A
C106        C107   1.406       .  A
C106        H110   1.083       .  S
C107        O111   1.371       .  S
O109        H113   0.992       .  S
O111        H112   0.992       .  S
C114        C115   1.411       .  A
C114        C119   1.418       .  A
C115        C116   1.412       .  A
C115        H120   1.083       .  S
C116        C117   1.414       .  A
C116        O419   1.371       .  S
C117        C118   1.403       .  A
C118        C119   1.400       .  A
C118        H122   1.084       .  S
C119        O123   1.372       .  S
O121        C414   1.371       .  S
O121        H125   0.992   1_565  S
O123        H124   0.992       .  S
C126        C127   1.405       .  A
C126        C429   1.413       .  A
C127        C128   1.398       .  A
C127        H132   1.084       .  S
C128        C129   1.417       .  A
C128        O133   1.372       .  S
C129        C303   1.501       .  S
C129        C428   1.410       .  A
C130        C131   1.411       .  A
C130        C427   1.410       .  A
C130        H134   1.083       .  S
C131        C424   1.413       .  A
C131        O135   1.371       .  S
O133        H137   0.992       .  S
O135        H136   0.992       .  S
C138        C299   1.469       .  S
C138        C139   1.401       .  A
C138        C441   1.404       .  A
C139        C140   1.403       .  A
C139        H144   1.084       .  S
C140        C141   1.413       .  A
C140        O145   1.371       .  S
C141        C440   1.408       .  A
C142        C143   1.399       .  A
C142        C439   1.408   1_545  A
C142        H146   1.083       .  S
C143        C436   1.404   1_545  A
C143        O147   1.372       .  S
O145        H149   0.991       .  S
O147        H148   0.992       .  S
C150        N449   1.358       .  A
C150        N155   1.353       .  A
C150        C585   1.469       .  S
N151        C448   1.358       .  A
N151        C152   1.363       .  A
C152        N153   1.369       .  A
C152        C158   1.481       .  S
N153        C452   1.365       .  A
C154        N451   1.365       .  A
C154        N155   1.355       .  A
C154        C576   1.501       .  S
C156        N157   1.366       .  A
C156        N161   1.357       .  A
C156        C263   1.505       .  S
N157        C158   1.369       .  A
C158        N159   1.363       .  A
N159        C160   1.358       .  A
C160        N161   1.355       .  A
C160        C251   1.476       .  S
C162        N163   1.357       .  A
C162        N167   1.363       .  A
C162        C239   1.498       .  S
N163        C164   1.353       .  A
C164        N165   1.353       .  A
C164        C230   1.465       .  S
N165        C166   1.358       .  A
C166        N167   1.366       .  A
C166        C170   1.470       .  S
C168        N169   1.356       .  A
C168        N173   1.354       .  A
C168        C215   1.470       .  S
N169        C170   1.359       .  A
C170        N171   1.366       .  A
N171        C172   1.362       .  A
C172        N173   1.357       .  A
C172        C206   1.497       .  S
O174        C182   1.266       .  A
O174       Co492   1.999   1_545  S
O175        C183   1.290       .  A
O175       Co195   2.038       .  S
O176        C184   1.273       .  A
O176       Co196   1.914       .  S
O177        C185   1.261       .  A
O178        C184   1.292       .  A
O178       Co493   2.046   1_545  S
O179        C185   1.270       .  A
O179       Co194   2.020       .  S
O180        C183   1.279       .  A
O180       Co197   1.934       .  S
O181        C182   1.263       .  A
C182        C242   1.491       .  S
C183        C254   1.492       .  S
C184        C227   1.476       .  S
C185        C266   1.497       .  S
O186        C199   1.264       .  A
O186       Co194   1.973       .  S
O187        C796   1.256       .  A
O187       Co195   1.994       .  S
O188        C499   1.269   1_545  A
O188       Co643   2.000   1_455  S
O189        C202   1.249       .  A
O189       Co197   1.979       .  S
O190        C202   1.254       .  A
O190       Co195   1.991       .  S
O191        C797   1.267       .  A
O191       Co194   1.985       .  S
O192        C199   1.275       .  A
O193        C498   1.251       .  A
O193       Co792   1.990   1_465  S
Co194       O472   1.999       .  S
Co195       O476   2.046       .  S
Co195       O198   2.237       .  S
Co196       O635   2.000   1_556  S
Co196       O789   1.990   1_545  S
Co196       O496   1.952   1_545  S
Co197       O198   1.961       .  S
O198       Co494   1.952       .  S
C199        C218   1.483       .  S
C200        C275   1.497       .  S
C200        O783   1.256   1_455  A
C200        O491   1.251       .  A
C201        C290   1.486       .  S
C201        O486   1.270       .  A
C201        O787   1.267       .  A
C202        C203   1.489       .  S
C203        C204   1.407       .  A
C203        C208   1.411       .  A
C204        C205   1.409       .  A
C204        H209   1.083       .  S
C205        C206   1.415       .  A
C205        O210   1.371       .  S
C206        C207   1.408       .  A
C207        C208   1.395       .  A
C207        H211   1.083       .  S
C208        O212   1.373       .  S
O210        H214   0.992       .  S
O212        H213   0.992       .  S
C215        C216   1.400       .  A
C215        C220   1.406       .  A
C216        C217   1.400       .  A
C216        H221   1.084       .  S
C217        C218   1.415       .  A
C217        O222   1.371       .  S
C218        C219   1.406       .  A
C219        C220   1.400       .  A
C219        H223   1.083       .  S
C220        O224   1.371       .  S
O222        H822   0.991       .  S
O224        H225   0.992       .  S
H226        O818   0.991       .  S
C227        C228   1.405       .  A
C227        C232   1.412       .  A
C228        C229   1.397       .  A
C228        H233   1.084       .  S
C229        C230   1.403       .  A
C229        O234   1.371       .  S
C230        C231   1.401       .  A
C231        C232   1.401       .  A
C231        H235   1.084       .  S
C232        O236   1.372       .  S
O234        H238   0.992       .  S
O236        H237   0.992       .  S
C239        C240   1.412       .  A
C239        C244   1.415       .  A
C240        C241   1.411       .  A
C240        H245   1.083       .  S
C241        C242   1.412       .  A
C241        O246   1.371       .  S
C242        C243   1.404       .  A
C243        C244   1.393       .  A
C243        H247   1.084       .  S
C244        O844   1.372       .  S
O246        H250   0.992       .  S
O248        C840   1.372       .  S
O248        H249   0.992       .  S
C251        C252   1.398       .  A
C251        C256   1.407       .  A
C252        C253   1.399       .  A
C252        H257   1.084       .  S
C253        C254   1.417       .  A
C253        O258   1.372       .  S
C254        C255   1.408       .  A
C255        C256   1.407       .  A
C255        H259   1.083       .  S
C256        O260   1.371       .  S
O258        H262   0.992       .  S
O260        H261   0.992       .  S
C263        C264   1.411       .  A
C263        C268   1.418       .  A
C264        C265   1.412       .  A
C264        H269   1.083       .  S
C265        C266   1.414       .  A
C265        O568   1.371       .  S
C266        C267   1.403       .  A
C267        C268   1.400       .  A
C267        H271   1.084       .  S
C268        O272   1.372       .  S
O270        C563   1.371       .  S
O270        H274   0.992   1_565  S
O272        H273   0.992       .  S
C275        C276   1.405       .  A
C275        C578   1.413       .  A
C276        C277   1.398       .  A
C276        H281   1.084       .  S
C277        C278   1.417       .  A
C277        O282   1.372       .  S
C278        C452   1.501       .  S
C278        C577   1.410       .  A
C279        C576   1.410       .  A
C279        C280   1.411       .  A
C279        H283   1.083       .  S
C280        C573   1.413       .  A
C280        O284   1.371       .  S
O282        H286   0.992       .  S
O284        H285   0.992       .  S
C287        C448   1.469       .  S
C287        C288   1.401       .  A
C287        C590   1.404       .  A
C288        C289   1.403       .  A
C288        H293   1.084       .  S
C289        C290   1.413       .  A
C289        O294   1.371       .  S
C290        C589   1.408       .  A
C291        C588   1.408   1_545  A
C291        C292   1.399       .  A
C291        H295   1.083       .  S
C292        C585   1.404   1_545  A
C292        O296   1.372       .  S
O294        H298   0.991       .  S
O296        H297   0.992       .  S
C299        N304   1.353       .  A
N300        C301   1.363       .  A
C301        N302   1.369       .  A
C301        C307   1.481       .  S
C303        N304   1.355       .  A
C305        N306   1.366       .  A
C305        N310   1.357       .  A
C305        C412   1.505       .  S
N306        C307   1.369       .  A
C307        N308   1.363       .  A
N308        C309   1.358       .  A
C309        N310   1.355       .  A
C309        C400   1.476       .  S
C311        N312   1.357       .  A
C311        N316   1.363       .  A
C311        C388   1.498       .  S
N312        C313   1.353       .  A
C313        N314   1.353       .  A
C313        C379   1.465       .  S
N314        C315   1.358       .  A
C315        N316   1.366       .  A
C315        C319   1.470       .  S
C317        N318   1.356       .  A
C317        N322   1.354       .  A
C317        C364   1.470       .  S
N318        C319   1.359       .  A
C319        N320   1.366       .  A
N320        C321   1.362       .  A
C321        N322   1.357       .  A
C321        C355   1.497       .  S
O323        C331   1.266       .  A
O324        C332   1.290       .  A
O324       Co344   2.038       .  S
O325        C333   1.273       .  A
O325       Co345   1.914       .  S
O326        C334   1.261       .  A
O326       Co495   2.003   1_554  S
O327        C333   1.291       .  A
O328        C334   1.270       .  A
O328       Co343   2.019       .  S
O329        C332   1.279       .  A
O329       Co346   1.934       .  S
O330        C331   1.263       .  A
O330       Co494   2.008   1_554  S
C331        C391   1.491       .  S
C332        C403   1.492       .  S
C333        C376   1.476       .  S
C334        C415   1.497       .  S
O335        C348   1.264       .  A
O335       Co343   1.973       .  S
O336        C945   1.256       .  A
O336       Co344   1.994       .  S
O337      Co1090   2.000   1_454  S
O338        C351   1.249       .  A
O338       Co346   1.979       .  S
O339        C351   1.255       .  A
O339       Co344   1.991       .  S
O340        C946   1.267       .  A
O340       Co343   1.985       .  S
O341        C348   1.275       .  A
O341       Co495   2.019   1_554  S
O342       Co941   1.990   1_455  S
Co343       O496   2.070   1_554  S
Co344       O347   2.237       .  S
Co345       O479   2.008       .  S
Co345      O1082   2.000       .  S
Co345       O938   1.990       .  S
Co346       O475   2.003       .  S
Co346       O490   2.019       .  S
Co346       O347   1.961       .  S
O347       Co492   2.070       .  S
C348        C367   1.483       .  S
C349        C424   1.496       .  S
C349        O932   1.256   1_455  A
C350        C439   1.486       .  S
C350        O936   1.267       .  A
C351        C352   1.489       .  S
C352        C353   1.407       .  A
C352        C357   1.412       .  A
C353        C354   1.409       .  A
C353        H358   1.083       .  S
C354        C355   1.415       .  A
C354        O359   1.371       .  S
C355        C356   1.408       .  A
C356        C357   1.395       .  A
C356        H360   1.083       .  S
C357        O361   1.373       .  S
O359        H363   0.992       .  S
O361        H362   0.992       .  S
C364        C365   1.400       .  A
C364        C369   1.406       .  A
C365        C366   1.400       .  A
C365        H370   1.084       .  S
C366        C367   1.415       .  A
C366        O371   1.371       .  S
C367        C368   1.406       .  A
C368        C369   1.400       .  A
C368        H372   1.083       .  S
C369        O373   1.371       .  S
O371        H971   0.991       .  S
O373        H374   0.992       .  S
H375        O967   0.991       .  S
C376        C377   1.406       .  A
C376        C381   1.412       .  A
C377        C378   1.397       .  A
C377        H382   1.084       .  S
C378        C379   1.403       .  A
C378        O383   1.371       .  S
C379        C380   1.401       .  A
C380        C381   1.401       .  A
C380        H384   1.084       .  S
C381        O385   1.372       .  S
O383        H387   0.992       .  S
O385        H386   0.992       .  S
C388        C389   1.412       .  A
C388        C393   1.415       .  A
C389        C390   1.411       .  A
C389        H394   1.083       .  S
C390        C391   1.412       .  A
C390        O395   1.371       .  S
C391        C392   1.404       .  A
C392        C393   1.393       .  A
C392        H396   1.084       .  S
C393        O993   1.372       .  S
O395        H399   0.992       .  S
O397        C989   1.372       .  S
O397        H398   0.992       .  S
C400        C401   1.398   1_565  A
C400        C405   1.407       .  A
C401        C402   1.399       .  A
C401        H406   1.084       .  S
C402        C403   1.417   1_545  A
C402        O407   1.372       .  S
C403        C404   1.408       .  A
C404        C405   1.407       .  A
C404        H408   1.083       .  S
C405        O409   1.371       .  S
O407        H411   0.992       .  S
O409        H410   0.992       .  S
C412        C413   1.411       .  A
C412        C417   1.418       .  A
C413        C414   1.412       .  A
C413        H418   1.083   1_565  S
C414        C415   1.414       .  A
C415        C416   1.403       .  A
C416        C417   1.400       .  A
C416        H420   1.084       .  S
C417        O421   1.372       .  S
O419        H423   0.992       .  S
O421        H422   0.992   1_565  S
C424        C425   1.405       .  A
C425        C426   1.398       .  A
C425        H430   1.084       .  S
C426        C427   1.418       .  A
C426        O431   1.372       .  S
C428        C429   1.411       .  A
C428        H432   1.083       .  S
C429        O433   1.371       .  S
O431        H435   0.992       .  S
O433        H434   0.992       .  S
C436        C437   1.401       .  A
C437        C438   1.402       .  A
C437        H442   1.084       .  S
C438        C439   1.413       .  A
C438        O443   1.371       .  S
C440        C441   1.399       .  A
C440        H444   1.083       .  S
C441        O445   1.372       .  S
O443        H447   0.991       .  S
O445        H446   0.992       .  S
C448        N453   1.353       .  A
N449        C450   1.363       .  A
C450        N451   1.369       .  A
C450        C456   1.481       .  S
C452        N453   1.355       .  A
C454        N455   1.366       .  A
C454        N459   1.357       .  A
C454        C561   1.505       .  S
N455        C456   1.369       .  A
C456        N457   1.363       .  A
N457        C458   1.358       .  A
C458        N459   1.355       .  A
C458        C549   1.476       .  S
C460        N461   1.357       .  A
C460        N465   1.363       .  A
C460        C537   1.498       .  S
N461        C462   1.353       .  A
C462        N463   1.353       .  A
C462        C528   1.465       .  S
N463        C464   1.358       .  A
C464        N465   1.366       .  A
C464        C468   1.470       .  S
C466        N467   1.356       .  A
C466        N471   1.354       .  A
C466        C513   1.470       .  S
N467        C468   1.359       .  A
C468        N469   1.366       .  A
N469        C470   1.362       .  A
C470        N471   1.357       .  A
C470        C504   1.497       .  S
O472        C480   1.266       .  A
O473        C481   1.290       .  A
O473       Co493   2.038       .  S
O474        C482   1.273       .  A
O474       Co494   1.914       .  S
O475        C483   1.261       .  A
O476        C482   1.292       .  A
O477        C483   1.270       .  A
O477       Co492   2.020       .  S
O478        C481   1.279       .  A
O478       Co495   1.934       .  S
O479        C480   1.263       .  A
C480        C540   1.491       .  S
C481        C552   1.492       .  S
C482        C525   1.476       .  S
C483        C564   1.497       .  S
O484        C497   1.264       .  A
O484       Co492   1.973       .  S
O485       C1094   1.256       .  A
O485       Co493   1.994       .  S
O486       Co941   2.000   1_455  S
O487        C500   1.249       .  A
O487       Co495   1.979       .  S
O488        C500   1.255       .  A
O488       Co493   1.991       .  S
O489       C1095   1.267       .  A
O489       Co492   1.985       .  S
O490        C497   1.275       .  A
O491      Co1090   1.990   1_455  S
Co493       O496   2.237       .  S
Co494       O933   2.000   1_556  S
Co494      O1087   1.990       .  S
Co495       O496   1.961       .  S
C497        C516   1.483       .  S
C498        C573   1.497       .  S
C498       O1081   1.256   1_455  A
C499        C588   1.486       .  S
C499       O1085   1.267       .  A
C500        C501   1.489       .  S
C501        C502   1.407       .  A
C501        C506   1.411       .  A
C502        C503   1.409       .  A
C502        H507   1.083       .  S
C503        C504   1.415       .  A
C503        O508   1.371       .  S
C504        C505   1.408       .  A
C505        C506   1.395       .  A
C505        H509   1.083       .  S
C506        O510   1.373       .  S
O508        H512   0.992       .  S
O510        H511   0.992       .  S
C513        C514   1.400       .  A
C513        C518   1.406       .  A
C514        C515   1.400       .  A
C514        H519   1.084       .  S
C515        C516   1.415       .  A
C515        O520   1.371       .  S
C516        C517   1.406       .  A
C517        C518   1.400       .  A
C517        H521   1.083       .  S
C518        O522   1.371       .  S
O520       H1120   0.991       .  S
O522        H523   0.992       .  S
H524       O1116   0.991       .  S
C525        C526   1.405       .  A
C525        C530   1.412       .  A
C526        C527   1.397       .  A
C526        H531   1.084       .  S
C527        C528   1.403       .  A
C527        O532   1.371       .  S
C528        C529   1.401       .  A
C529        C530   1.401       .  A
C529        H533   1.084       .  S
C530        O534   1.372       .  S
O532        H536   0.992       .  S
O534        H535   0.992       .  S
C537        C538   1.412       .  A
C537        C542   1.415       .  A
C538        C539   1.411       .  A
C538        H543   1.083       .  S
C539        C540   1.412       .  A
C539        O544   1.371       .  S
C540        C541   1.404       .  A
C541        C542   1.393       .  A
C541        H545   1.084       .  S
C542       O1142   1.372       .  S
O544        H548   0.992       .  S
O546       C1138   1.372       .  S
O546        H547   0.992       .  S
C549        C550   1.398   1_565  A
C549        C554   1.407       .  A
C550        C551   1.399       .  A
C550        H555   1.084       .  S
C551        C552   1.417   1_545  A
C551        O556   1.372       .  S
C552        C553   1.408       .  A
C553        C554   1.407       .  A
C553        H557   1.083       .  S
C554        O558   1.371       .  S
O556        H560   0.992       .  S
O558        H559   0.992       .  S
C561        C562   1.411       .  A
C561        C566   1.418       .  A
C562        C563   1.412       .  A
C562        H567   1.083   1_565  S
C563        C564   1.414       .  A
C564        C565   1.403       .  A
C565        C566   1.400       .  A
C565        H569   1.084       .  S
C566        O570   1.372       .  S
O568        H572   0.992       .  S
O570        H571   0.992   1_565  S
C573        C574   1.405       .  A
C574        C575   1.398       .  A
C574        H579   1.084       .  S
C575        C576   1.418       .  A
C575        O580   1.372       .  S
C577        C578   1.411       .  A
C577        H581   1.083       .  S
C578        O582   1.371       .  S
O580        H584   0.992       .  S
O582        H583   0.992       .  S
C585        C586   1.401       .  A
C586        C587   1.402       .  A
C586        H591   1.084       .  S
C587        C588   1.413       .  A
C587        O592   1.371       .  S
C589        C590   1.399       .  A
C589        H593   1.083       .  S
C590        O594   1.372       .  S
O592        H596   0.991       .  S
O594        H595   0.992       .  S
C597        N896   1.358       .  A
C597        N602   1.353       .  A
C597       C1032   1.469       .  S
N598        C895   1.358       .  A
N598        C599   1.363       .  A
C599        N600   1.369       .  A
C599        C605   1.481       .  S
N600        C899   1.365       .  A
C601        N898   1.365       .  A
C601        N602   1.355       .  A
C601       C1023   1.501       .  S
C603        N604   1.366       .  A
C603        N608   1.357       .  A
C603        C710   1.505       .  S
N604        C605   1.369       .  A
C605        N606   1.363       .  A
N606        C607   1.358       .  A
C607        N608   1.355       .  A
C607        C698   1.476       .  S
C609        N610   1.357       .  A
C609        N614   1.363       .  A
C609        C686   1.498       .  S
N610        C611   1.353       .  A
C611        N612   1.353       .  A
C611        C677   1.465       .  S
N612        C613   1.358       .  A
C613        N614   1.366       .  A
C613        C617   1.470       .  S
C615        N616   1.355       .  A
C615        N620   1.354       .  A
C615        C662   1.469       .  S
N616        C617   1.359       .  A
C617        N618   1.366       .  A
N618        C619   1.362       .  A
C619        N620   1.357       .  A
C619        C653   1.497       .  S
O621        C629   1.266       .  A
O621       Co939   1.999   1_545  S
O622        C630   1.290       .  A
O622       Co642   2.038       .  S
O623        C631   1.273   1_455  A
O623       Co643   1.914   1_455  S
O624        C632   1.261       .  A
O624       Co793   2.003   1_554  S
O625        C631   1.292       .  A
O625       Co940   2.046   1_545  S
O626        C632   1.270       .  A
O626       Co641   2.019       .  S
O627        C630   1.279       .  A
O627       Co644   1.934       .  S
O628        C629   1.263       .  A
O628       Co792   2.008   1_554  S
C629        C689   1.491       .  S
C630        C701   1.492       .  S
C631        C674   1.476       .  S
C632        C713   1.497       .  S
O633        C646   1.264       .  A
O633       Co641   1.973       .  S
O634       Co642   1.994       .  S
O635        C946   1.269   1_545  A
O636        C649   1.249       .  A
O636       Co644   1.979       .  S
O637        C649   1.255       .  A
O637       Co642   1.991       .  S
O638       Co641   1.985   1_455  S
O639        C646   1.275       .  A
O639       Co793   2.019   1_554  S
O640        C945   1.251       .  A
Co641       O919   1.999       .  S
Co641       O794   2.070   1_554  S
Co642       O923   2.046       .  S
Co642       O645   2.237       .  S
Co643       O777   2.008       .  S
Co643       O943   1.952   1_545  S
Co644       O773   2.003       .  S
Co644       O788   2.019       .  S
Co644       O645   1.961       .  S
O645       Co790   2.070       .  S
O645       Co941   1.952       .  S
C646        C665   1.483       .  S
C647        C722   1.497       .  S
C647        O938   1.251       .  A
C648        C737   1.486       .  S
C648        O933   1.269       .  A
C649        C650   1.489       .  S
C650        C651   1.407       .  A
C650        C655   1.412       .  A
C651        C652   1.409       .  A
C651        H656   1.083       .  S
C652        C653   1.415       .  A
C652        O657   1.371       .  S
C653        C654   1.408       .  A
C654        C655   1.395       .  A
C654        H658   1.083       .  S
C655        O659   1.373       .  S
O657        H661   0.992       .  S
O659        H660   0.992       .  S
C662        C663   1.400       .  A
C662        C667   1.406       .  A
C663        C664   1.400       .  A
C663        H668   1.084       .  S
C664        C665   1.415       .  A
C664        O669   1.371       .  S
C665        C666   1.406       .  A
C666        C667   1.400       .  A
C666        H670   1.083       .  S
C667        O671   1.371       .  S
O671        H672   0.992       .  S
C674        C675   1.406       .  A
C674        C679   1.412   1_655  A
C675        C676   1.397       .  A
C675        H680   1.084       .  S
C676        C677   1.403       .  A
C676        O681   1.371       .  S
C677        C678   1.401   1_655  A
C678        C679   1.401       .  A
C678        H682   1.084       .  S
C679        O683   1.372       .  S
O681        H685   0.992       .  S
O683        H684   0.992       .  S
C686        C687   1.412       .  A
C686        C691   1.415       .  A
C687        C688   1.411       .  A
C687        H692   1.083       .  S
C688        C689   1.412       .  A
C688        O693   1.371       .  S
C689        C690   1.404       .  A
C690        C691   1.393       .  A
C690        H694   1.084       .  S
O693        H697   0.992       .  S
O695        H696   0.992       .  S
C698        C699   1.398       .  A
C698        C703   1.407       .  A
C699        C700   1.399       .  A
C699        H704   1.084       .  S
C700        C701   1.417       .  A
C700        O705   1.372       .  S
C701        C702   1.408       .  A
C702        C703   1.407       .  A
C702        H706   1.083       .  S
C703        O707   1.371       .  S
O705        H709   0.992       .  S
O707        H708   0.992       .  S
C710        C711   1.411       .  A
C710        C715   1.418       .  A
C711        C712   1.412       .  A
C711        H716   1.083       .  S
C712        C713   1.414       .  A
C712       O1015   1.371       .  S
C713        C714   1.403       .  A
C714        C715   1.400       .  A
C714        H718   1.084       .  S
C715        O719   1.372       .  S
O717       C1010   1.371       .  S
O717        H721   0.992   1_565  S
O719        H720   0.992       .  S
C722        C723   1.405       .  A
C722       C1025   1.413       .  A
C723        C724   1.398       .  A
C723        H728   1.084       .  S
C724        C725   1.417       .  A
C724        O729   1.372       .  S
C725        C899   1.501       .  S
C725       C1024   1.410       .  A
C726       C1023   1.410       .  A
C726        C727   1.411       .  A
C726        H730   1.083       .  S
C727       C1020   1.413       .  A
C727        O731   1.371       .  S
O729        H733   0.992       .  S
O731        H732   0.992       .  S
C734        C895   1.469       .  S
C734        C735   1.401       .  A
C734       C1037   1.404       .  A
C735        C736   1.402       .  A
C735        H740   1.084       .  S
C736        C737   1.413       .  A
C736        O741   1.371       .  S
C737       C1036   1.408       .  A
C738       C1035   1.408   1_545  A
C738        C739   1.399       .  A
C738        H742   1.083       .  S
C739       C1032   1.404   1_545  A
C739        O743   1.372       .  S
O741        H745   0.991       .  S
O743        H744   0.992       .  S
C746       N1045   1.358       .  A
C746        N751   1.353       .  A
C746       C1181   1.469       .  S
N747       C1044   1.358       .  A
N747        C748   1.363       .  A
C748        N749   1.369       .  A
C748        C754   1.481       .  S
N749       C1048   1.365       .  A
C750       N1047   1.365       .  A
C750        N751   1.355       .  A
C750       C1172   1.501       .  S
C752        N753   1.366       .  A
C752        N757   1.357       .  A
C752        C859   1.505       .  S
N753        C754   1.369       .  A
C754        N755   1.363       .  A
N755        C756   1.358       .  A
C756        N757   1.355       .  A
C756        C847   1.476       .  S
C758        N759   1.357       .  A
C758        N763   1.363       .  A
C758        C835   1.498       .  S
N759        C760   1.353       .  A
C760        N761   1.353       .  A
C760        C826   1.465       .  S
N761        C762   1.358       .  A
C762        N763   1.366       .  A
C762        C766   1.470       .  S
C764        N765   1.356       .  A
C764        N769   1.354       .  A
C764        C811   1.470       .  S
N765        C766   1.359       .  A
C766        N767   1.366       .  A
N767        C768   1.362       .  A
C768        N769   1.357       .  A
C768        C802   1.497       .  S
O770        C778   1.266       .  A
O770      Co1088   1.999   1_545  S
O771        C779   1.290       .  A
O771       Co791   2.038       .  S
O772        C780   1.273   1_455  A
O772       Co792   1.914   1_455  S
O773        C781   1.261       .  A
O774        C780   1.292       .  A
O774      Co1089   2.046   1_545  S
O775        C781   1.270       .  A
O775       Co790   2.020       .  S
O776        C779   1.279       .  A
O776       Co793   1.934       .  S
O777        C778   1.263       .  A
C778        C838   1.491       .  S
C779        C850   1.492       .  S
C780        C823   1.476       .  S
C781        C862   1.497       .  S
O782        C795   1.264       .  A
O782       Co790   1.973       .  S
O783       Co791   1.994       .  S
O784       C1095   1.269   1_545  A
O785        C798   1.249       .  A
O785       Co793   1.979       .  S
O786        C798   1.255       .  A
O786       Co791   1.991       .  S
O787       Co790   1.985   1_455  S
O788        C795   1.275       .  A
O789       C1094   1.251       .  A
Co790      O1068   1.999       .  S
Co791      O1072   2.046       .  S
Co791       O794   2.237       .  S
Co792      O1092   1.952   1_545  S
Co793       O794   1.961       .  S
O794      Co1090   1.952       .  S
C795        C814   1.483       .  S
C796        C871   1.497       .  S
C796       O1087   1.251       .  A
C797        C886   1.486       .  S
C797       O1082   1.269       .  A
C798        C799   1.489       .  S
C799        C800   1.407       .  A
C799        C804   1.411       .  A
C800        C801   1.409       .  A
C800        H805   1.083       .  S
C801        C802   1.415       .  A
C801        O806   1.371       .  S
C802        C803   1.408       .  A
C803        C804   1.395       .  A
C803        H807   1.083       .  S
C804        O808   1.373       .  S
O806        H810   0.992       .  S
O808        H809   0.992       .  S
C811        C812   1.400       .  A
C811        C816   1.406       .  A
C812        C813   1.400       .  A
C812        H817   1.084       .  S
C813        C814   1.415       .  A
C813        O818   1.371       .  S
C814        C815   1.406       .  A
C815        C816   1.400       .  A
C815        H819   1.083       .  S
C816        O820   1.371       .  S
O820        H821   0.992       .  S
C823        C824   1.405       .  A
C823        C828   1.412   1_655  A
C824        C825   1.397       .  A
C824        H829   1.084       .  S
C825        C826   1.403       .  A
C825        O830   1.371       .  S
C826        C827   1.401   1_655  A
C827        C828   1.401       .  A
C827        H831   1.084       .  S
C828        O832   1.372       .  S
O830        H834   0.992       .  S
O832        H833   0.992       .  S
C835        C836   1.412       .  A
C835        C840   1.415       .  A
C836        C837   1.411       .  A
C836        H841   1.083       .  S
C837        C838   1.412       .  A
C837        O842   1.371       .  S
C838        C839   1.404       .  A
C839        C840   1.393       .  A
C839        H843   1.084       .  S
O842        H846   0.992       .  S
O844        H845   0.992       .  S
C847        C848   1.398       .  A
C847        C852   1.407       .  A
C848        C849   1.399       .  A
C848        H853   1.084       .  S
C849        C850   1.417       .  A
C849        O854   1.372       .  S
C850        C851   1.408       .  A
C851        C852   1.407       .  A
C851        H855   1.083       .  S
C852        O856   1.371       .  S
O854        H858   0.992       .  S
O856        H857   0.992       .  S
C859        C860   1.411       .  A
C859        C864   1.418       .  A
C860        C861   1.412       .  A
C860        H865   1.083       .  S
C861        C862   1.414       .  A
C861       O1164   1.371       .  S
C862        C863   1.403       .  A
C863        C864   1.400       .  A
C863        H867   1.084       .  S
C864        O868   1.372       .  S
O866       C1159   1.371       .  S
O866        H870   0.992   1_565  S
O868        H869   0.992       .  S
C871        C872   1.405       .  A
C871       C1174   1.413       .  A
C872        C873   1.398       .  A
C872        H877   1.084       .  S
C873        C874   1.417       .  A
C873        O878   1.372       .  S
C874       C1048   1.501       .  S
C874       C1173   1.410       .  A
C875       C1172   1.410       .  A
C875        C876   1.411       .  A
C875        H879   1.083       .  S
C876       C1169   1.413       .  A
C876        O880   1.371       .  S
O878        H882   0.992       .  S
O880        H881   0.992       .  S
C883       C1044   1.469       .  S
C883        C884   1.401       .  A
C883       C1186   1.404       .  A
C884        C885   1.403       .  A
C884        H889   1.084       .  S
C885        C886   1.413       .  A
C885        O890   1.371       .  S
C886       C1185   1.408       .  A
C887       C1184   1.408   1_545  A
C887        C888   1.399       .  A
C887        H891   1.083       .  S
C888       C1181   1.404   1_545  A
C888        O892   1.372       .  S
O890        H894   0.991       .  S
O892        H893   0.992       .  S
C895        N900   1.353       .  A
N896        C897   1.363       .  A
C897        N898   1.369       .  A
C897        C903   1.481       .  S
C899        N900   1.355       .  A
C901        N902   1.366       .  A
C901        N906   1.357       .  A
C901       C1008   1.505       .  S
N902        C903   1.369       .  A
C903        N904   1.363       .  A
N904        C905   1.358       .  A
C905        N906   1.355       .  A
C905        C996   1.476       .  S
C907        N908   1.357       .  A
C907        N912   1.363       .  A
C907        C984   1.498       .  S
N908        C909   1.353       .  A
C909        N910   1.353       .  A
C909        C975   1.465       .  S
N910        C911   1.358       .  A
C911        N912   1.366       .  A
C911        C915   1.470       .  S
C913        N914   1.356       .  A
C913        N918   1.354       .  A
C913        C960   1.470       .  S
N914        C915   1.359       .  A
C915        N916   1.366       .  A
N916        C917   1.362       .  A
C917        N918   1.357       .  A
C917        C951   1.497       .  S
O919        C927   1.266       .  A
O920        C928   1.290       .  A
O920       Co940   2.038       .  S
O921        C929   1.273   1_455  A
O921       Co941   1.914   1_455  S
O922        C930   1.261       .  A
O922      Co1091   2.003   1_554  S
O923        C929   1.291       .  A
O924        C930   1.270       .  A
O924       Co939   2.019       .  S
O925        C928   1.279       .  A
O925       Co942   1.934       .  S
O926        C927   1.263       .  A
O926      Co1090   2.008   1_554  S
C927        C987   1.492       .  S
C928        C999   1.492       .  S
C929        C972   1.476       .  S
C930       C1011   1.497       .  S
O931        C944   1.264       .  A
O931       Co939   1.973       .  S
O932       Co940   1.994       .  S
O934        C947   1.249       .  A
O934       Co942   1.979       .  S
O935        C947   1.254       .  A
O935       Co940   1.991       .  S
O936       Co939   1.985   1_455  S
O937        C944   1.275       .  A
O937      Co1091   2.019   1_554  S
Co939      O1092   2.070   1_554  S
Co940       O943   2.237       .  S
Co941      O1075   2.008       .  S
Co942      O1071   2.003       .  S
Co942      O1086   2.019       .  S
Co942       O943   1.961       .  S
O943      Co1088   2.070       .  S
C944        C963   1.483       .  S
C945       C1020   1.496       .  S
C946       C1035   1.486       .  S
C947        C948   1.489       .  S
C948        C949   1.407       .  A
C948        C953   1.412       .  A
C949        C950   1.409       .  A
C949        H954   1.083       .  S
C950        C951   1.415       .  A
C950        O955   1.371       .  S
C951        C952   1.408       .  A
C952        C953   1.395       .  A
C952        H956   1.083       .  S
C953        O957   1.373       .  S
O955        H959   0.992       .  S
O957        H958   0.992       .  S
C960        C961   1.400       .  A
C960        C965   1.406       .  A
C961        C962   1.400       .  A
C961        H966   1.084       .  S
C962        C963   1.415       .  A
C962        O967   1.371       .  S
C963        C964   1.406       .  A
C964        C965   1.400       .  A
C964        H968   1.083       .  S
C965        O969   1.371       .  S
O969        H970   0.992       .  S
C972        C973   1.406       .  A
C972        C977   1.412   1_655  A
C973        C974   1.397       .  A
C973        H978   1.084       .  S
C974        C975   1.403       .  A
C974        O979   1.371       .  S
C975        C976   1.401   1_655  A
C976        C977   1.401       .  A
C976        H980   1.084       .  S
C977        O981   1.372       .  S
O979        H983   0.992       .  S
O981        H982   0.992       .  S
C984        C985   1.412       .  A
C984        C989   1.415       .  A
C985        C986   1.411       .  A
C985        H990   1.083       .  S
C986        C987   1.412       .  A
C986        O991   1.371       .  S
C987        C988   1.404       .  A
C988        C989   1.393       .  A
C988        H992   1.084       .  S
O991        H995   0.992       .  S
O993        H994   0.992       .  S
C996        C997   1.398   1_565  A
C996       C1001   1.407       .  A
C997        C998   1.399       .  A
C997       H1002   1.084       .  S
C998        C999   1.417   1_545  A
C998       O1003   1.372       .  S
C999       C1000   1.408       .  A
C1000      C1001   1.407       .  A
C1000      H1004   1.083       .  S
C1001      O1005   1.371       .  S
O1003      H1007   0.992       .  S
O1005      H1006   0.992       .  S
C1008      C1009   1.411       .  A
C1008      C1013   1.418       .  A
C1009      C1010   1.412       .  A
C1009      H1014   1.083   1_565  S
C1010      C1011   1.414       .  A
C1011      C1012   1.403       .  A
C1012      C1013   1.400       .  A
C1012      H1016   1.084       .  S
C1013      O1017   1.372       .  S
O1015      H1019   0.992       .  S
O1017      H1018   0.992   1_565  S
C1020      C1021   1.405       .  A
C1021      C1022   1.398       .  A
C1021      H1026   1.084       .  S
C1022      C1023   1.418       .  A
C1022      O1027   1.372       .  S
C1024      C1025   1.411       .  A
C1024      H1028   1.083       .  S
C1025      O1029   1.371       .  S
O1027      H1031   0.992       .  S
O1029      H1030   0.992       .  S
C1032      C1033   1.401       .  A
C1033      C1034   1.402       .  A
C1033      H1038   1.084       .  S
C1034      C1035   1.413       .  A
C1034      O1039   1.371       .  S
C1036      C1037   1.399       .  A
C1036      H1040   1.083       .  S
C1037      O1041   1.372       .  S
O1039      H1043   0.991       .  S
O1041      H1042   0.992       .  S
C1044      N1049   1.353       .  A
N1045      C1046   1.363       .  A
C1046      N1047   1.369       .  A
C1046      C1052   1.481       .  S
C1048      N1049   1.355       .  A
C1050      N1051   1.366       .  A
C1050      N1055   1.357       .  A
C1050      C1157   1.505       .  S
N1051      C1052   1.369       .  A
C1052      N1053   1.363       .  A
N1053      C1054   1.358       .  A
C1054      N1055   1.355       .  A
C1054      C1145   1.476       .  S
C1056      N1057   1.357       .  A
C1056      N1061   1.363       .  A
C1056      C1133   1.498       .  S
N1057      C1058   1.353       .  A
C1058      N1059   1.353       .  A
C1058      C1124   1.465       .  S
N1059      C1060   1.358       .  A
C1060      N1061   1.366       .  A
C1060      C1064   1.470       .  S
C1062      N1063   1.356       .  A
C1062      N1067   1.354       .  A
C1062      C1109   1.470       .  S
N1063      C1064   1.359       .  A
C1064      N1065   1.366       .  A
N1065      C1066   1.362       .  A
C1066      N1067   1.357       .  A
C1066      C1100   1.497       .  S
O1068      C1076   1.266       .  A
O1069      C1077   1.290       .  A
O1069     Co1089   2.038       .  S
O1070      C1078   1.273   1_455  A
O1070     Co1090   1.914   1_455  S
O1071      C1079   1.261       .  A
O1072      C1078   1.291       .  A
O1073      C1079   1.270       .  A
O1073     Co1088   2.020       .  S
O1074      C1077   1.279       .  A
O1074     Co1091   1.934       .  S
O1075      C1076   1.263       .  A
C1076      C1136   1.491       .  S
C1077      C1148   1.492       .  S
C1078      C1121   1.476       .  S
C1079      C1160   1.497       .  S
O1080      C1093   1.264       .  A
O1080     Co1088   1.973       .  S
O1081     Co1089   1.994       .  S
O1083      C1096   1.249       .  A
O1083     Co1091   1.979       .  S
O1084      C1096   1.255       .  A
O1084     Co1089   1.991       .  S
O1085     Co1088   1.985   1_455  S
O1086      C1093   1.275       .  A
Co1089     O1092   2.237       .  S
Co1091     O1092   1.961       .  S
C1093      C1112   1.483       .  S
C1094      C1169   1.497       .  S
C1095      C1184   1.486       .  S
C1096      C1097   1.489       .  S
C1097      C1098   1.407       .  A
C1097      C1102   1.411       .  A
C1098      C1099   1.409       .  A
C1098      H1103   1.083       .  S
C1099      C1100   1.415       .  A
C1099      O1104   1.371       .  S
C1100      C1101   1.408       .  A
C1101      C1102   1.395       .  A
C1101      H1105   1.083       .  S
C1102      O1106   1.373       .  S
O1104      H1108   0.992       .  S
O1106      H1107   0.992       .  S
C1109      C1110   1.400       .  A
C1109      C1114   1.406       .  A
C1110      C1111   1.400       .  A
C1110      H1115   1.084       .  S
C1111      C1112   1.415       .  A
C1111      O1116   1.371       .  S
C1112      C1113   1.406       .  A
C1113      C1114   1.400       .  A
C1113      H1117   1.083       .  S
C1114      O1118   1.371       .  S
O1118      H1119   0.992       .  S
C1121      C1122   1.405       .  A
C1121      C1126   1.412   1_655  A
C1122      C1123   1.397       .  A
C1122      H1127   1.084       .  S
C1123      C1124   1.403       .  A
C1123      O1128   1.371       .  S
C1124      C1125   1.401   1_655  A
C1125      C1126   1.401       .  A
C1125      H1129   1.084       .  S
C1126      O1130   1.372       .  S
O1128      H1132   0.992       .  S
O1130      H1131   0.992       .  S
C1133      C1134   1.412       .  A
C1133      C1138   1.415       .  A
C1134      C1135   1.411       .  A
C1134      H1139   1.083       .  S
C1135      C1136   1.412       .  A
C1135      O1140   1.371       .  S
C1136      C1137   1.404       .  A
C1137      C1138   1.393       .  A
C1137      H1141   1.084       .  S
O1140      H1144   0.992       .  S
O1142      H1143   0.992       .  S
C1145      C1146   1.398   1_565  A
C1145      C1150   1.407       .  A
C1146      C1147   1.399       .  A
C1146      H1151   1.084       .  S
C1147      C1148   1.417   1_545  A
C1147      O1152   1.372       .  S
C1148      C1149   1.408       .  A
C1149      C1150   1.407       .  A
C1149      H1153   1.083       .  S
C1150      O1154   1.371       .  S
O1152      H1156   0.992       .  S
O1154      H1155   0.992       .  S
C1157      C1158   1.411       .  A
C1157      C1162   1.418       .  A
C1158      C1159   1.412       .  A
C1158      H1163   1.083   1_565  S
C1159      C1160   1.414       .  A
C1160      C1161   1.403       .  A
C1161      C1162   1.400       .  A
C1161      H1165   1.084       .  S
C1162      O1166   1.372       .  S
O1164      H1168   0.992       .  S
O1166      H1167   0.992   1_565  S
C1169      C1170   1.405       .  A
C1170      C1171   1.398       .  A
C1170      H1175   1.084       .  S
C1171      C1172   1.417       .  A
C1171      O1176   1.372       .  S
C1173      C1174   1.411       .  A
C1173      H1177   1.083       .  S
C1174      O1178   1.371       .  S
O1176      H1180   0.992       .  S
O1178      H1179   0.992       .  S
C1181      C1182   1.401       .  A
C1182      C1183   1.403       .  A
C1182      H1187   1.084       .  S
C1183      C1184   1.413       .  A
C1183      O1188   1.371       .  S
C1185      C1186   1.399       .  A
C1185      H1189   1.083       .  S
C1186      O1190   1.372       .  S
O1188      H1192   0.991       .  S
O1190      H1191   0.992       .  S
