geometry optimzed in LAMMPS
_audit_creation_date              2020-11-30 
_audit_creation_method            'lammps2cif' 
_symmetry_space_group_name_H-M    'P1' 
_symmetry_Int_Tables_number       1 
_symmetry_cell_setting            triclinic 
loop_ 
_symmetry_equiv_pos_as_xyz 
  x,y,z 
_cell_length_a                    28.08587467 
_cell_length_b                    28.321742150687925 
_cell_length_c                    28.323259140273535 
_cell_angle_alpha                 90.71233868507036 
_cell_angle_beta                  89.79234691854342 
_cell_angle_gamma                 90.16725484088012 
loop_ 
_atom_site_label 
_atom_site_type_symbol 
_atom_site_fract_x 
_atom_site_fract_y 
_atom_site_fract_z 
_atom_site_charge 
C1          C  0.83972362  0.83447880  0.84229650     0.85600
C2          C  0.87845038  0.80909090  0.86936621    -0.54600
C3          C  0.90757410  0.83808674  0.89487715     0.08600
C4          C  0.89501806  0.89049335  0.89189802     0.19500
C5          C  0.81360826  0.86377680  0.88057066    -0.55300
C6          C  0.84257807  0.89267942  0.90665916     0.08700
C7          C  0.86504471  0.87238627  0.81321165    -0.54900
C8          C  0.89468904  0.90093098  0.83892306     0.09200
H9          H  0.88089095  0.77080585  0.87053773     0.13800
H10         H  0.91871306  0.91405920  0.91252625    -0.00500
H11         H  0.77532285  0.86621988  0.88438388     0.14100
H12         H  0.86215052  0.87479919  0.77511918     0.13800
N13         N  0.77988243  0.91612610  0.42903702    -0.07000
N14         N  0.74900815  0.92590630  0.46282341    -0.59100
N15         N  0.80533461  0.95736948  0.32109517    -0.06600
N16         N  0.79408916  0.99265988  0.29246541    -0.61200
N17         N  0.77169837  0.92491868  0.31995930    -0.06200
N18         N  0.73766830  0.93727299  0.28982764    -0.59100
N19         N  0.81447614  0.94754611  0.42914378    -0.05900
N20         N  0.80818896  0.97898342  0.46292235    -0.61600
C21         C  0.76780736  0.96461391  0.48410436     0.95200
C22         C  0.75193139  0.97967168  0.27234690     0.95000
N23         N  0.95111121  0.91593368  0.31272444    -0.07200
N24         N  0.97879582  0.92425714  0.27606693    -0.59700
N25         N  0.92697650  0.94984362  0.42462902    -0.05300
N26         N  0.93873276  0.98240099  0.45684544    -0.60900
N27         N  0.95995067  0.91689145  0.42221261    -0.07200
N28         N  0.99468608  0.92692959  0.45290825    -0.59900
N29         N  0.91778235  0.94843043  0.31620752    -0.04900
N30         N  0.92167239  0.97911859  0.28226029    -0.61000
Mn31       Mn  0.86633702  0.95159650  0.37284319     1.18400
C32         C  0.95924397  0.96333539  0.25729558     0.97300
C33         C  0.98105129  0.96799482  0.47477986     0.98000
N34         N  0.77379240  0.81412101  0.31315092    -0.07200
N35         N  0.74444213  0.81415322  0.27728508    -0.63500
N36         N  0.80446919  0.76917476  0.41791310    -0.06000
N37         N  0.79437241  0.73479063  0.44812052    -0.64200
N38         N  0.77263422  0.80311340  0.42179331    -0.06700
N39         N  0.74036666  0.79203411  0.45443396    -0.63800
N40         N  0.80547382  0.78020992  0.30842486    -0.05600
N41         N  0.79775004  0.75605169  0.26906782    -0.64500
Mn42       Mn  0.77332976  0.86433749  0.37135665     1.10700
C43         C  0.75986583  0.77814402  0.24988508     0.98500
C44         C  0.75420107  0.74928820  0.47104668     0.98600
N45         N  0.95132890  0.80332685  0.41666930    -0.06700
N46         N  0.98186322  0.79380142  0.45021607    -0.62100
N47         N  0.92055559  0.77070499  0.30653988    -0.06000
N48         N  0.93239823  0.73585874  0.27665915    -0.58800
N49         N  0.95547873  0.80193064  0.30904050    -0.07300
N50         N  0.99156192  0.78812264  0.28152503    -0.61700
N51         N  0.91744143  0.77100490  0.41485096    -0.06300
N52         N  0.92411535  0.73885103  0.44717205    -0.58800
Mn53       Mn  0.95586861  0.85967415  0.36513419     1.20200
Mn54       Mn  0.86168844  0.77144137  0.36150594     1.10100
Cl55       Cl  0.86440480  0.86165002  0.36771473    -0.86800
C56         C  0.96395021  0.75398922  0.46889845     0.95500
C57         C  0.97674340  0.74715892  0.26062543     0.95300
N58         N  0.96942383  0.42399782  0.91927834    -0.07000
N59         N  0.00377591  0.45532583  0.92912513    -0.59100
N60         N  0.93138974  0.31622750  0.95135653    -0.06600
N61         N  0.94205747  0.28489541  0.98364266    -0.61200
N62         N  0.96308176  0.31490106  0.91695206    -0.06200
N63         N  0.99547285  0.28251500  0.92477413    -0.59100
N64         N  0.93697051  0.42500258  0.95311940    -0.05900
N65         N  0.94881999  0.45679193  0.98604526    -0.61600
C66         C  0.99053499  0.47600479  0.97097614     0.95200
C67         C  0.98141154  0.26367155  0.96590189     0.95000
N68         N  0.78238719  0.31904922  0.92622629    -0.07200
N69         N  0.74776320  0.28926465  0.93822804    -0.59700
N70         N  0.82302226  0.42771384  0.95370588    -0.05300
N71         N  0.81663953  0.46158235  0.98534687    -0.60900
N72         N  0.78882185  0.42822508  0.92200408    -0.07200
N73         N  0.75849289  0.46247750  0.93178336    -0.59900
N74         N  0.81601725  0.31931068  0.95865050    -0.04900
N75         N  0.80399335  0.29040931  0.99353801    -0.61000
Mn76       Mn  0.87686730  0.37189324  0.95515642     1.18400
C77         C  0.76157388  0.27107938  0.98021793     0.97300
C78         C  0.77659704  0.48342458  0.97100761     0.98000
N79         N  0.96247496  0.31049693  0.80398003    -0.07200
N80         N  0.99570853  0.27951298  0.79071062    -0.63500
N81         N  0.92945247  0.41749585  0.77305806    -0.06000
N82         N  0.94181968  0.44218393  0.73602210    -0.64200
N83         N  0.96380930  0.41818576  0.80462747    -0.06700
N84         N  0.00019350  0.44327402  0.78944979    -0.63800
N85         N  0.92708125  0.30950724  0.77347337    -0.05600
N86         N  0.93552291  0.27744457  0.73973308    -0.64500
Mn87       Mn  0.96548686  0.36717928  0.86140207     1.10700
C88         C  0.97819424  0.25814081  0.75099286     0.98500
C89         C  0.98588978  0.45788409  0.74667778     0.98600
N90         N  0.78145655  0.42457430  0.80731007    -0.06700
N91         N  0.74664702  0.45361724  0.79452176    -0.62100
N92         N  0.81362438  0.31464022  0.77972087    -0.06000
N93         N  0.80131261  0.28335484  0.74728345    -0.58800
N94         N  0.78146343  0.31647358  0.81354727    -0.07300
N95         N  0.74672722  0.28635670  0.80475136    -0.61700
N96         N  0.81467145  0.42320592  0.77422205    -0.06300
N97         N  0.80318976  0.45195859  0.73918558    -0.58800
Mn98       Mn  0.78266387  0.37226207  0.86745551     1.20200
Mn99       Mn  0.87114064  0.36635682  0.77470088     1.10100
Cl100      Cl  0.87405124  0.36962808  0.86468134    -0.86800
C101        C  0.76080616  0.47141950  0.75222578     0.95500
C102        C  0.75955082  0.26592240  0.76334247     0.95300
N103        N  0.43086648  0.78761451  0.91564176    -0.07000
N104        N  0.46372072  0.75529521  0.92099199    -0.59100
N105        N  0.32272583  0.81732496  0.95731784    -0.06600
N106        N  0.29359301  0.80396196  0.99222468    -0.61200
N107        N  0.32109040  0.78568110  0.92288073    -0.06200
N108        N  0.29033184  0.75144653  0.93323075    -0.59100
N109        N  0.43302534  0.81960623  0.94966744    -0.05900
N110        N  0.46760084  0.80923850  0.97915589    -0.61600
C111        C  0.48674514  0.76930645  0.96040308     0.95200
C112        C  0.27261421  0.76298674  0.97649989     0.95000
N113        N  0.32640709  0.96556403  0.91789467    -0.07200
N114        N  0.29434030  0.99824589  0.92696918    -0.59700
N115        N  0.43512223  0.93398185  0.95477089    -0.05300
N116        N  0.46578296  0.94487187  0.98910520    -0.60900
N117        N  0.43579239  0.96702837  0.92222039    -0.07200
N118        N  0.46712229  0.00061125  0.93442990    -0.59900
N119        N  0.32590482  0.93300676  0.95084752    -0.04900
N120        N  0.29339735  0.94319723  0.98270984    -0.61000
Mn121      Mn  0.37909897  0.87612690  0.95440300     1.18400
C122        C  0.27391750  0.98386432  0.96744397     0.97300
C123        C  0.48610694  0.98651801  0.97630328     0.98000
N124        N  0.31837229  0.79076949  0.81288197    -0.07200
N125        N  0.28261977  0.76124238  0.80942662    -0.63500
N126        N  0.42779094  0.81568577  0.77139419    -0.06000
N127        N  0.45741466  0.80350055  0.73666667    -0.64200
N128        N  0.42679481  0.78269502  0.80370923    -0.06700
N129        N  0.45502858  0.74712325  0.79087426    -0.63800
N130        N  0.31765286  0.82189136  0.77879800    -0.05600
N131        N  0.28100198  0.81359008  0.75083427    -0.64500
Mn132      Mn  0.37443801  0.78622679  0.86370118     1.10700
C133        C  0.25931078  0.77613364  0.77117361     0.98500
C134        C  0.47471113  0.76077134  0.74928001     0.98600
N135        N  0.43518811  0.96030296  0.80815353    -0.06700
N136        N  0.47325139  0.98679864  0.80275849    -0.62100
N137        N  0.32274444  0.93431131  0.77180648    -0.06000
N138        N  0.29232862  0.94417183  0.73741125    -0.58800
N139        N  0.32504570  0.96954293  0.80261403    -0.07300
N140        N  0.29647497  0.00440867  0.78844792    -0.61700
N141        N  0.43313243  0.92753108  0.77485919    -0.06300
N142        N  0.46989448  0.93140835  0.74607091    -0.58800
Mn143      Mn  0.38053902  0.96693138  0.86267981     1.20200
Mn144      Mn  0.37518337  0.87488422  0.77306330     1.10100
Cl145      Cl  0.37725762  0.87626048  0.86361281    -0.86800
C146        C  0.49494323  0.96826462  0.76412071     0.95500
C147        C  0.27553513  0.98798867  0.74774008     0.95300
C148        C  0.40087025  0.32895350  0.89456521     0.85600
C149        C  0.42723271  0.36890331  0.86926151    -0.54600
C150        C  0.39892530  0.39724415  0.84212288     0.08600
C151        C  0.34622140  0.38271959  0.84433783     0.19500
C152        C  0.36295752  0.35599366  0.92330785    -0.55300
C153        C  0.33413354  0.38303060  0.89672898     0.08700
C154        C  0.37359229  0.30225895  0.85642110    -0.54900
C155        C  0.34566405  0.33051471  0.82994834     0.09200
H156        H  0.46521897  0.37430497  0.87290732     0.13800
H157        H  0.32097780  0.40439968  0.82468617    -0.00500
H158        H  0.36128353  0.35756811  0.96159086     0.14100
H159        H  0.37556169  0.26423260  0.85119788     0.13800
C160        C  0.40345029  0.83631472  0.39146392     0.85600
C161        C  0.37464872  0.87340304  0.41898924    -0.54600
C162        C  0.34745200  0.90113216  0.39104473     0.08600
C163        C  0.35290076  0.89149638  0.33812064     0.19500
C164        C  0.36808850  0.81025646  0.36005417    -0.55300
C165        C  0.34317100  0.83884475  0.33118005     0.08700
C166        C  0.43303413  0.86700389  0.35721803    -0.54900
C167        C  0.40625795  0.89575641  0.32907002     0.09200
H168        H  0.37537821  0.87777840  0.45699434     0.13800
H169        H  0.33024640  0.91505240  0.31717546    -0.00500
H170        H  0.36527873  0.77199011  0.35845780     0.14100
H171        H  0.47150261  0.86886419  0.35724461     0.13800
C172        C  0.91855221  0.40132186  0.34317619     0.85600
C173        C  0.89117094  0.42864717  0.38141041    -0.54600
C174        C  0.85970143  0.40143349  0.40593563     0.08600
C175        C  0.85905185  0.34936809  0.39076078     0.19500
C176        C  0.94217901  0.36162166  0.37178369    -0.55300
C177        C  0.91069687  0.33363195  0.39587038     0.08700
C178        C  0.88144038  0.37596372  0.31299683    -0.54900
C179        C  0.85017037  0.35002721  0.33794639     0.09200
H180        H  0.89587738  0.46595848  0.38856381     0.13800
H181        H  0.83260236  0.32729529  0.40888542    -0.00500
H182        H  0.98017294  0.35637788  0.37496710     0.14100
H183        H  0.88089669  0.37721502  0.27464994     0.13800
N184        N  0.21614747  0.06386681  0.66375608    -0.07000
N185        N  0.25161462  0.05697725  0.69423719    -0.59100
N186        N  0.17552661  0.02825160  0.55635210    -0.06600
N187        N  0.18335422  0.99747737  0.52194200    -0.61200
N188        N  0.20590198  0.06362740  0.55376721    -0.06200
N189        N  0.23461988  0.05765658  0.51746022    -0.59100
N190        N  0.18580166  0.02827819  0.66554947    -0.05900
N191        N  0.20084923  0.99659759  0.69658184    -0.61600
C192        C  0.24169231  0.01496981  0.71531291     0.95200
C193        C  0.22002807  0.01644634  0.49760627     0.95000
N194        N  0.02694757  0.04788428  0.56454318    -0.07200
N195        N  0.99320376  0.03583532  0.53373951    -0.59700
N196        N  0.07134887  0.02543547  0.67211174    -0.05300
N197        N  0.06598599  0.99445959  0.70600103    -0.60900
N198        N  0.03635044  0.05632474  0.67336432    -0.07200
N199        N  0.00648235  0.04666742  0.70783591    -0.59900
N200        N  0.06197919  0.01700845  0.56268032    -0.04900
N201        N  0.05216428  0.98342977  0.53057847    -0.61000
Mn202      Mn  0.12377118  0.02343445  0.61422645     1.18400
C203        C  0.00897601  0.99547791  0.51238057     0.97300
C204        C  0.02542498  0.00805357  0.72794142     0.98000
N205        N  0.20407308  0.17795913  0.55182641    -0.07200
N206        N  0.23768290  0.19393770  0.52261757    -0.63500
N207        N  0.16992116  0.20737975  0.66032270    -0.06000
N208        N  0.17893726  0.24134671  0.69115874    -0.64200
N209        N  0.20447121  0.17609158  0.65992510    -0.06700
N210        N  0.23752065  0.18791118  0.69043665    -0.63800
N211        N  0.16762536  0.20719673  0.55190526    -0.05600
N212        N  0.17563255  0.24257022  0.52231690    -0.64500
Mn213      Mn  0.20870831  0.12015412  0.60720991     1.10700
C214        C  0.21925997  0.23385980  0.50330083     0.98500
C215        C  0.22090717  0.22830804  0.70992890     0.98600
N216        N  0.02509608  0.17009894  0.66976820    -0.06700
N217        N  0.99180040  0.18286141  0.70114217    -0.62100
N218        N  0.05523708  0.19326927  0.55732892    -0.06000
N219        N  0.04596556  0.21873268  0.51999042    -0.58800
N220        N  0.02406352  0.15875758  0.56106940    -0.07300
N221        N  0.99289621  0.16003469  0.52660527    -0.61700
N222        N  0.05742403  0.20376205  0.66669235    -0.06300
N223        N  0.04726576  0.23900908  0.69643111    -0.58800
Mn224      Mn  0.02689435  0.10820345  0.61768534     1.20200
Mn225      Mn  0.11220974  0.20373795  0.60899202     1.10100
Cl226      Cl  0.11796618  0.11382973  0.61215939    -0.86800
C227        C  0.00643624  0.22575688  0.71834098     0.95500
C228        C  0.00769511  0.19692982  0.50078677     0.95300
N229        N  0.06522013  0.67130153  0.20605883    -0.07000
N230        N  0.05231886  0.70049906  0.24106653    -0.59100
N231        N  0.04332451  0.56021199  0.16526795    -0.06600
N232        N  0.01558520  0.52343758  0.17180634    -0.61200
N233        N  0.07604905  0.56264007  0.19829829    -0.06200
N234        N  0.07154518  0.52746926  0.22774104    -0.59100
N235        N  0.03093769  0.66817608  0.17454981    -0.05900
N236        N  0.99404863  0.69466013  0.18814673    -0.61600
C237        C  0.00780847  0.71539869  0.22956475     0.95200
C238        C  0.03417226  0.50301013  0.21045237     0.95000
N239        N  0.06928332  0.56672111  0.01869733    -0.07200
N240        N  0.05898279  0.53577990  0.98419926    -0.59700
N241        N  0.03686789  0.67261888  0.06249893    -0.05300
N242        N  0.00456926  0.70562363  0.05817652    -0.60900
N243        N  0.06931528  0.67595586  0.02898370    -0.07200
N244        N  0.05908473  0.71108103  0.00079546    -0.59900
N245        N  0.03708437  0.56388082  0.05256272    -0.04900
N246        N  0.00459552  0.53133131  0.04139877    -0.61000
Mn247      Mn  0.03594170  0.61597297  0.11357159     1.18400
C248        C  0.01840596  0.51351426  0.99867673     0.97300
C249        C  0.01857774  0.72917520  0.01956545     0.98000
N250        N  0.18659007  0.56800920  0.20256977    -0.07200
N251        N  0.19639940  0.53667342  0.23566822    -0.63500
N252        N  0.21184062  0.67690981  0.16567631    -0.06000
N253        N  0.23983695  0.71370309  0.16979479    -0.64200
N254        N  0.17935700  0.67708319  0.19922840    -0.06700
N255        N  0.18547085  0.71375348  0.22769450    -0.63800
N256        N  0.21962905  0.56733562  0.16942337    -0.05600
N257        N  0.25278499  0.53547702  0.18013685    -0.64500
Mn258      Mn  0.12691053  0.62028434  0.20273037     1.10700
C259        C  0.23779080  0.51617633  0.22166946     0.98500
C260        C  0.22304830  0.73649046  0.20833736     0.98600
N261        N  0.18564074  0.67970282  0.02230191    -0.06700
N262        N  0.19850472  0.71064443  0.98933861    -0.62100
N263        N  0.21598188  0.57000517  0.05421579    -0.06000
N264        N  0.24820916  0.53795976  0.04331711    -0.58800
N265        N  0.18279672  0.57130307  0.02143794    -0.07300
N266        N  0.19134186  0.54011337  0.98783858    -0.61700
N267        N  0.21826220  0.67896116  0.05566352    -0.06300
N268        N  0.25268779  0.71005795  0.04642997    -0.58800
Mn269      Mn  0.12657099  0.62380027  0.02159879     1.20200
Mn270      Mn  0.21762113  0.62268703  0.11149906     1.10100
Cl271      Cl  0.12677897  0.62068239  0.11218760    -0.86800
C272        C  0.24008842  0.73044270  0.00509763     0.95500
C273        C  0.23184627  0.51975705  0.00218689     0.95300
N274        N  0.68302713  0.07132890  0.03659670    -0.07000
N275        N  0.71717890  0.06429550  0.00569188    -0.59100
N276        N  0.57175051  0.03358842  0.06100856    -0.06600
N277        N  0.54059651  0.00012775  0.04825393    -0.61200
N278        N  0.57329523  0.06659941  0.02861373    -0.06200
N279        N  0.54319960  0.05594225  0.99366499    -0.59100
N280        N  0.68186979  0.03723907  0.06784599    -0.05900
N281        N  0.71518360  0.00586604  0.05809719    -0.61600
C282        C  0.73673895  0.02344131  0.01920528     0.95200
C283        C  0.52248574  0.01429474  0.00607104     0.95000
N284        N  0.56935398  0.07418363  0.20725621    -0.07200
N285        N  0.53524645  0.06847475  0.23836992    -0.59700
N286        N  0.67733311  0.03197773  0.18268233    -0.05300
N287        N  0.70381013  0.99590960  0.19719117    -0.60900
N288        N  0.67833586  0.06628735  0.21463354    -0.07200
N289        N  0.70616241  0.05423295  0.25054113    -0.59900
N290        N  0.56868984  0.04016024  0.17514424    -0.04900
N291        N  0.53416926  0.01012705  0.18431585    -0.61000
Mn292      Mn  0.62494156  0.03432265  0.12156499     1.18400
C293        C  0.51382440  0.02849130  0.22378477     0.97300
C294        C  0.72249502  0.01027043  0.23939710     0.98000
N295        N  0.57458188  0.17885742  0.03504579    -0.07200
N296        N  0.54162258  0.18582702  0.00339111    -0.63500
N297        N  0.68356592  0.21660495  0.06507668    -0.06000
N298        N  0.71298539  0.25161818  0.05358531    -0.64200
N299        N  0.68299332  0.18423090  0.03124800    -0.06700
N300        N  0.71141744  0.19740114  0.99597381    -0.63800
N301        N  0.57421486  0.21263731  0.06736584    -0.05600
N302        N  0.54076970  0.24363850  0.05831193    -0.64500
Mn303      Mn  0.62859106  0.12508373  0.03210428     1.10700
C304        C  0.52058519  0.22567359  0.01884776     0.98500
C305        C  0.73084528  0.23920585  0.01050744     0.98600
N306        N  0.68092608  0.17919345  0.21022368    -0.06700
N307        N  0.71273197  0.18783809  0.24309113    -0.62100
N308        N  0.57177433  0.21722418  0.17921938    -0.06000
N309        N  0.53954606  0.25039184  0.18883801    -0.58800
N310        N  0.57180358  0.18539444  0.21268907    -0.07300
N311        N  0.54015743  0.19694126  0.24593777    -0.61700
N312        N  0.68186259  0.21212205  0.17786113    -0.06300
N313        N  0.71464297  0.24376613  0.18798799    -0.58800
Mn314      Mn  0.62539063  0.12626642  0.21200022     1.20200
Mn315      Mn  0.62799799  0.21569440  0.12250857     1.10100
Cl316      Cl  0.62702968  0.12521408  0.12202347    -0.86800
C317        C  0.73386082  0.22776236  0.22840175     0.95500
C318        C  0.51946116  0.23724358  0.23045023     0.95300
C319        C  0.59084271  0.59640490  0.14739230     0.85600
C320        C  0.61573803  0.63895106  0.17025467    -0.54600
C321        C  0.64188211  0.66511702  0.13950665     0.08600
C322        C  0.64247809  0.64609194  0.08901783     0.19500
C323        C  0.56278807  0.61629890  0.10536109    -0.55300
C324        C  0.59011761  0.64299155  0.07562978     0.08700
C325        C  0.63118397  0.56849673  0.12232730    -0.54900
C326        C  0.65835786  0.59491965  0.09256310     0.09200
H327        H  0.61337689  0.64730484  0.20773256     0.13800
H328        H  0.66443915  0.66744920  0.06443552    -0.00500
H329        H  0.52481983  0.61148984  0.10034152     0.14100
H330        H  0.63644989  0.53070827  0.12527081     0.13800
C331        C  0.14417745  0.65561359  0.65595850     0.85600
C332        C  0.11405368  0.61534801  0.67560585    -0.54600
C333        C  0.09119348  0.58900761  0.64201944     0.08600
C334        C  0.09889782  0.60649327  0.59189617     0.19500
C335        C  0.17679391  0.63344729  0.61825703    -0.55300
C336        C  0.15298956  0.60799941  0.58481414     0.08700
C337        C  0.10954953  0.68477138  0.62632189    -0.54900
C338        C  0.08425945  0.65849530  0.59474829     0.09200
H339        H  0.11199324  0.60754346  0.71304526     0.13800
H340        H  0.08072135  0.58500230  0.56452069    -0.00500
H341        H  0.21533720  0.63601154  0.61889362     0.14100
H342        H  0.10552985  0.72279428  0.62843112     0.13800
N343        N  0.26708747  0.32039048  0.42188565    -0.07000
N344        N  0.23280935  0.28944653  0.43271313    -0.59100
N345        N  0.30666076  0.42955081  0.45044813    -0.06600
N346        N  0.29786920  0.46350357  0.48138462    -0.61200
N347        N  0.27502798  0.42993870  0.41628399    -0.06200
N348        N  0.24398642  0.46414008  0.42331300    -0.59100
N349        N  0.29986331  0.32013624  0.45502505    -0.05900
N350        N  0.28913386  0.28868270  0.48788650    -0.61600
C351        C  0.24728996  0.26915032  0.47385228     0.95200
C352        C  0.25916466  0.48502074  0.46365015     0.95000
N353        N  0.45547209  0.42129193  0.42973013    -0.07200
N354        N  0.49128767  0.44847022  0.44449452    -0.59700
N355        N  0.41104669  0.31601924  0.45653601    -0.05300
N356        N  0.41360166  0.28161613  0.48712149    -0.60900
N357        N  0.44588876  0.31298715  0.42549852    -0.07200
N358        N  0.47308806  0.27639211  0.43451271    -0.59900
N359        N  0.41949212  0.42457624  0.45955573    -0.04900
N360        N  0.42999613  0.45459303  0.49443592    -0.61000
Mn361      Mn  0.35919825  0.37291519  0.45609805     1.18400
C362        C  0.47478604  0.46978113  0.48457783     0.97300
C363        C  0.45193432  0.25682169  0.47250938     0.98000
N364        N  0.27808796  0.42749145  0.30312045    -0.07200
N365        N  0.24631598  0.45985277  0.29079522    -0.63500
N366        N  0.31081820  0.31684970  0.27539688    -0.06000
N367        N  0.29992500  0.28454494  0.24303593    -0.64200
N368        N  0.27701935  0.31887710  0.30781616    -0.06700
N369        N  0.24323859  0.28812556  0.29832964    -0.63800
N370        N  0.31294483  0.42593365  0.27172718    -0.05600
N371        N  0.30507345  0.45716983  0.23776871    -0.64500
Mn372      Mn  0.27323466  0.37411709  0.36218736     1.10700
C373        C  0.26335679  0.47855174  0.24996700     0.98500
C374        C  0.25747037  0.26699847  0.25791450     0.98600
N375        N  0.45758257  0.31241208  0.31303567    -0.06700
N376        N  0.49343627  0.28336620  0.30314109    -0.62100
N377        N  0.42785474  0.42182346  0.28129929    -0.06000
N378        N  0.44100877  0.45337491  0.24994727    -0.58800
N379        N  0.45894038  0.42041286  0.31607583    -0.07300
N380        N  0.49374871  0.45079353  0.30892166    -0.61700
N381        N  0.42783172  0.31397894  0.27710588    -0.06300
N382        N  0.44404122  0.28666155  0.24193652    -0.58800
Mn383      Mn  0.45526310  0.36670482  0.37124323     1.20200
Mn384      Mn  0.36974166  0.36948778  0.27526443     1.10100
Cl385      Cl  0.36434047  0.37082374  0.36600253    -0.86800
C386        C  0.48466150  0.26692264  0.25883341     0.95500
C387        C  0.48210759  0.47100510  0.26767615     0.95300
N388        N  0.52578145  0.67486100  0.67036252    -0.07000
N389        N  0.49173655  0.68702056  0.70083477    -0.59100
N390        N  0.56300500  0.69903700  0.56036848    -0.06600
N391        N  0.55568271  0.72825872  0.52542802    -0.61200
N392        N  0.52953664  0.66644515  0.56156197    -0.06200
N393        N  0.49856980  0.67297114  0.52757437    -0.59100
N394        N  0.55858947  0.70809845  0.66862777    -0.05900
N395        N  0.54672723  0.74382827  0.69720900    -0.61600
C396        C  0.50526312  0.73001801  0.71785644     0.95200
C397        C  0.51591810  0.71103188  0.50491675     0.95000
N398        N  0.70854558  0.66979343  0.55997563    -0.07200
N399        N  0.74186288  0.68009519  0.52795126    -0.59700
N400        N  0.67233167  0.70212220  0.66919947    -0.05300
N401        N  0.68050140  0.73334003  0.70305614    -0.60900
N402        N  0.70499610  0.66883376  0.66928070    -0.07200
N403        N  0.73595573  0.67664744  0.70312447    -0.59900
N404        N  0.67562258  0.70286589  0.56034015    -0.04900
N405        N  0.68600670  0.73580847  0.52883658    -0.61000
Mn406      Mn  0.61747306  0.70413338  0.61475086     1.18400
C407        C  0.72739052  0.72144062  0.50836894     0.97300
C408        C  0.71981419  0.71647280  0.72419857     0.98000
N409        N  0.52399146  0.55408850  0.56658417    -0.07200
N410        N  0.48958251  0.54187282  0.53667847    -0.63500
N411        N  0.56036648  0.53036060  0.67633796    -0.06000
N412        N  0.55120125  0.50223345  0.71202969    -0.64200
N413        N  0.52823633  0.56402941  0.67456629    -0.06700
N414        N  0.49690213  0.55977350  0.70875637    -0.63800
N415        N  0.55721918  0.52134645  0.56689595    -0.05600
N416        N  0.54630647  0.48690370  0.53645903    -0.64500
Mn417      Mn  0.52587420  0.61479848  0.61814778     1.10700
C418        C  0.50414715  0.50017066  0.51738899     0.98500
C419        C  0.51213667  0.52178334  0.73233984     0.98600
N420        N  0.70950555  0.55530495  0.67155031    -0.06700
N421        N  0.74542665  0.54265714  0.69932580    -0.62100
N422        N  0.67101369  0.52232684  0.56614398    -0.06000
N423        N  0.68276215  0.48676021  0.53802079    -0.58800
N424        N  0.70330826  0.55604765  0.56372273    -0.07300
N425        N  0.73714828  0.54427365  0.53387696    -0.61700
N426        N  0.67483299  0.52392939  0.67443825    -0.06300
N427        N  0.68643758  0.49025098  0.70468053    -0.58800
Mn428      Mn  0.70759774  0.61269738  0.61594410     1.20200
Mn429      Mn  0.61559709  0.52338692  0.62109608     1.10100
Cl430      Cl  0.61675439  0.61367164  0.61747279    -0.86800
C431        C  0.73048754  0.50231018  0.72066489     0.95500
C432        C  0.72385140  0.50123570  0.51780922     0.95300
C433        C  0.57365927  0.14269951  0.58553407     0.85600
C434        C  0.55820482  0.11007999  0.62532004    -0.54600
C435        C  0.59511367  0.09128347  0.64971740     0.08600
C436        C  0.64438329  0.10530011  0.63177015     0.19500
C437        C  0.60831893  0.17888832  0.60797387    -0.55300
C438        C  0.64469708  0.15913427  0.63276870     0.08700
C439        C  0.60661946  0.11121585  0.55503069    -0.54900
C440        C  0.64402839  0.09285298  0.57907327     0.09200
H441        H  0.52121098  0.10167484  0.63292545     0.13800
H442        H  0.67335876  0.08899315  0.65231743    -0.00500
H443        H  0.60355644  0.21683315  0.60605560     0.14100
H444        H  0.60299175  0.10468615  0.51753204     0.13800
C445        C  0.07340348  0.08302043  0.14254696     0.85600
C446        C  0.10295424  0.05383759  0.10718768    -0.54600
C447        C  0.13728884  0.07917676  0.08479197     0.08600
C448        C  0.13680633  0.13220545  0.09672536     0.19500
C449        C  0.11162895  0.10626649  0.17409691    -0.55300
C450        C  0.14417580  0.13310936  0.15037253     0.08700
C451        C  0.05223801  0.12185190  0.11305671    -0.54900
C452        C  0.08496832  0.14723573  0.08892987     0.09200
H453        H  0.10005591  0.01598946  0.10236716     0.13800
H454        H  0.16215409  0.15417180  0.07658278    -0.00500
H455        H  0.11245302  0.10293293  0.21215810     0.14100
H456        H  0.01411383  0.12730036  0.10948509     0.13800
C457        C  0.25105651  0.20311578  0.19787771    -0.06600
C458        C  0.22797663  0.23262494  0.23093741    -0.00700
C459        C  0.17770474  0.22908245  0.23664872    -0.09300
C460        C  0.15304878  0.19616156  0.20891503    -0.06600
C461        C  0.17584834  0.16654553  0.17610896    -0.00700
C462        C  0.22606200  0.16932211  0.17063641    -0.09200
C463        C  0.25402625  0.13533333  0.13925436     0.61200
H464        H  0.28933590  0.20606422  0.19432052     0.11900
H465        H  0.11487137  0.19308354  0.21277368     0.11900
C466        C  0.14899268  0.26003386  0.27062995     0.61400
F467        F  0.24169376  0.14041442  0.09257119    -0.23700
F468        F  0.24515806  0.08958751  0.15295876    -0.21100
F469        F  0.30264837  0.14298182  0.14241395    -0.20700
F470        F  0.15755707  0.30711183  0.26131201    -0.20800
F471        F  0.16111854  0.25012212  0.31673458    -0.21100
F472        F  0.10040340  0.25257171  0.26644130    -0.23800
C473        C  0.47951955  0.23292750  0.54973642    -0.06600
C474        C  0.47478275  0.22168395  0.50195420    -0.00700
C475        C  0.49234710  0.17861042  0.48405267    -0.09300
C476        C  0.51964175  0.15059352  0.51409914    -0.06600
C477        C  0.53167805  0.16575443  0.56037675    -0.00700
C478        C  0.50621162  0.20507053  0.58001289    -0.09200
C479        C  0.50525609  0.22116314  0.63142210     0.61200
H480        H  0.46321055  0.26497975  0.56352756     0.11900
H481        H  0.53179951  0.11697451  0.50078924     0.11900
C482        C  0.48163741  0.16222365  0.43391177     0.61400
F483        F  0.52718670  0.26479015  0.63569554    -0.23700
F484        F  0.52681700  0.19067557  0.66164243    -0.21100
F485        F  0.45840505  0.22544413  0.64612035    -0.20700
F486        F  0.50401211  0.19145584  0.40196784    -0.20800
F487        F  0.43300915  0.16331630  0.42637723    -0.21100
F488        F  0.49719861  0.11657408  0.42535894    -0.23800
C489        C  0.23164925  0.56501106  0.48430906    -0.06600
C490        C  0.22930828  0.51636553  0.49205354    -0.00700
C491        C  0.19914561  0.49786334  0.52735374    -0.09300
C492        C  0.17345937  0.52944605  0.55577555    -0.06600
C493        C  0.17758568  0.57821778  0.54986691    -0.00700
C494        C  0.20580628  0.59678023  0.51289506    -0.09200
C495        C  0.20764481  0.64936220  0.50296552     0.61200
H496        H  0.25444881  0.57782345  0.45629243     0.11900
H497        H  0.15116325  0.51636553  0.58406600     0.11900
C498        C  0.19478561  0.44504212  0.53539334     0.61400
F499        F  0.22808957  0.67355189  0.54038614    -0.23700
F500        F  0.16207839  0.66611386  0.49608887    -0.21100
F501        F  0.23411702  0.65897634  0.46286760    -0.20700
F502        F  0.23791972  0.42738114  0.55040506    -0.20800
F503        F  0.18175065  0.42236607  0.49386437    -0.21100
F504        F  0.16081323  0.43472395  0.56929343    -0.23800
C505        C  0.48961192  0.54489690  0.22436095    -0.06600
C506        C  0.51205334  0.50522783  0.24261892    -0.00700
C507        C  0.56148867  0.49885054  0.23558385    -0.09300
C508        C  0.58578744  0.53096367  0.20681630    -0.06600
C509        C  0.56239775  0.56840084  0.18404944    -0.00700
C510        C  0.51466847  0.57875827  0.19840865    -0.09200
C511        C  0.48846066  0.62492712  0.19098918     0.61200
H512        H  0.45223498  0.55061699  0.23239382     0.11900
H513        H  0.62371081  0.52673171  0.20209504     0.11900
C514        C  0.58824945  0.45731952  0.25622055     0.61400
F515        F  0.46847610  0.63981700  0.23339419    -0.23700
F516        F  0.45229699  0.61791577  0.15863768    -0.21100
F517        F  0.51744878  0.66099521  0.17609368    -0.20700
F518        F  0.56674653  0.41540765  0.24234823    -0.20800
F519        F  0.58829177  0.46073333  0.30495483    -0.21100
F520        F  0.63522502  0.45589061  0.24125685    -0.23800
C521        C  0.82466342  0.27082974  0.31658436    -0.06600
C522        C  0.81589944  0.31933880  0.31468964    -0.00700
C523        C  0.77867794  0.33735922  0.28698536    -0.09300
C524        C  0.75298235  0.30571283  0.25913416    -0.06600
C525        C  0.76302275  0.25731628  0.25908437    -0.00700
C526        C  0.79876029  0.23896679  0.28868527    -0.12400
C527        C  0.81112320  0.18679503  0.28929935     0.61200
H528        H  0.85339573  0.25841171  0.33859199     0.11900
H529        H  0.72495694  0.31891230  0.23670536     0.11900
C530        C  0.76741851  0.38959783  0.28404702     0.61400
F531        F  0.85217009  0.17843176  0.31478559    -0.23700
F532        F  0.81848710  0.17032211  0.24367633    -0.21100
F533        F  0.77446358  0.16163777  0.30992181    -0.20700
F534        F  0.77237972  0.41154577  0.32756328    -0.20800
F535        F  0.72105124  0.39679645  0.26939798    -0.21100
F536        F  0.79770170  0.41028522  0.25175714    -0.23800
C537        C  0.96092943  0.49209666  0.25286512    -0.06600
C538        C  0.00544946  0.47403188  0.24111592    -0.00700
C539        C  0.02283149  0.43333257  0.26258015    -0.09300
C540        C  0.99405360  0.41148946  0.29622318    -0.06600
C541        C  0.94963800  0.43055042  0.31064792    -0.00700
C542        C  0.93180451  0.47112592  0.28652534    -0.09200
C543        C  0.88459898  0.49638754  0.29625352     0.61200
H544        H  0.94975934  0.52465629  0.23655895     0.11900
H545        H  0.00629544  0.37849296  0.30972124     0.11900
C546        C  0.07121893  0.41300585  0.24958561     0.61400
F547        F  0.84801429  0.46604061  0.30685683    -0.23700
F548        F  0.86974880  0.52116707  0.25707895    -0.21100
F549        F  0.89053585  0.52842365  0.33296204    -0.20700
F550        F  0.10673062  0.44353363  0.26455807    -0.20800
F551        F  0.07452663  0.40683939  0.20115594    -0.21100
F552        F  0.07882415  0.36970853  0.27035695    -0.23800
C553        C  0.96282138  0.26440363  0.39799680    -0.06600
C554        C  0.92664998  0.29074558  0.42074229    -0.00700
C555        C  0.91160669  0.27801651  0.46708775    -0.09300
C556        C  0.93650251  0.24216537  0.48959880    -0.06600
C557        C  0.97638330  0.22127139  0.46891464    -0.00700
C558        C  0.98926894  0.23076995  0.42212297    -0.09200
C559        C  0.03091325  0.20581551  0.39847291     0.61200
H560        H  0.97225096  0.27247824  0.36185873     0.11900
H561        H  0.92737598  0.23251577  0.52543658     0.11900
C562        C  0.87228183  0.30255140  0.49508654     0.61400
F563        F  0.03690197  0.21965324  0.35211589    -0.23700
F564        F  0.02302768  0.15759408  0.39870177    -0.21100
F565        F  0.07256842  0.21582334  0.42253225    -0.20700
F566        F  0.82826847  0.28887387  0.47809276    -0.20800
F567        F  0.87749792  0.35074850  0.49290733    -0.21100
F568        F  0.87330909  0.29108394  0.54248308    -0.23800
C569        C  0.77847892  0.40895348  0.43645725    -0.06600
C570        C  0.82672001  0.42102931  0.44115293    -0.00700
C571        C  0.84113991  0.45427999  0.47585812    -0.09300
C572        C  0.80585444  0.47950943  0.49965320    -0.06600
C573        C  0.75722139  0.47035518  0.49231015    -0.00700
C574        C  0.74298540  0.43299359  0.46183429    -0.09200
C575        C  0.69108390  0.41976474  0.45426937     0.61200
H576        H  0.76851003  0.38187570  0.41108318     0.11900
H577        H  0.81676906  0.50640179  0.52501091     0.11900
C578        C  0.89252014  0.46414779  0.48995070     0.61400
F579        F  0.68583888  0.38466860  0.42017440    -0.23700
F580        F  0.66589755  0.45884788  0.43975427    -0.21100
F581        F  0.67172911  0.40306024  0.49580884    -0.20700
F582        F  0.92423071  0.43105154  0.47239850    -0.20800
F583        F  0.89624181  0.46372869  0.53867335    -0.21100
F584        F  0.90578696  0.50830842  0.47420925    -0.23800
C585        C  0.26697516  0.83271985  0.29037145    -0.06600
C586        C  0.31505441  0.81968557  0.29240234    -0.00700
C587        C  0.33362694  0.78484744  0.26104042    -0.09300
C588        C  0.30171556  0.76030038  0.23284413    -0.06600
C589        C  0.25289084  0.76982971  0.23413197    -0.00700
C590        C  0.23500269  0.80784007  0.26140742    -0.09200
C591        C  0.18284382  0.82144237  0.26044900     0.61200
H592        H  0.25405486  0.86032046  0.31385293     0.11900
H593        H  0.31530546  0.73167119  0.21087402     0.11900
C594        C  0.38583169  0.77073710  0.25555279     0.61400
F595        F  0.17507562  0.86454390  0.28271995    -0.23700
F596        F  0.15591740  0.78767772  0.28323061    -0.21100
F597        F  0.16769358  0.82494535  0.21419546    -0.20700
F598        F  0.39177049  0.72517020  0.27140502    -0.20800
F599        F  0.41727257  0.79984031  0.27933643    -0.21100
F600        F  0.39827510  0.77187885  0.20821448    -0.23800
C601        C  0.46318638  0.96036885  0.32456115    -0.06600
C602        C  0.42823397  0.93369352  0.30103836    -0.00700
C603        C  0.41777186  0.94296659  0.25283738    -0.09300
C604        C  0.44503834  0.97718709  0.22992113    -0.06600
C605        C  0.48139253  0.00160767  0.25311757    -0.00700
C606        C  0.49027580  0.99431226  0.30160730    -0.09200
C607        C  0.52935729  0.02010346  0.32885722     0.61200
H608        H  0.46957133  0.95383231  0.36162414     0.11900
H609        H  0.43934216  0.98432938  0.19284578     0.11900
C610        C  0.38101655  0.91596020  0.22387810     0.61400
F611        F  0.53307294  0.00455012  0.37485666    -0.23700
F612        F  0.51951249  0.06790115  0.33083111    -0.21100
F613        F  0.57295572  0.01275337  0.30711238    -0.20700
F614        F  0.33553639  0.92755809  0.23821892    -0.20800
F615        F  0.38813380  0.86837140  0.22834738    -0.21100
F616        F  0.38430491  0.92589049  0.17619433    -0.23800
C617        C  0.26562430  0.92279909  0.41190516    -0.06600
C618        C  0.31377295  0.93548108  0.41076376    -0.00700
C619        C  0.32915786  0.97848242  0.43108259    -0.09300
C620        C  0.29629343  0.00524931  0.45687832    -0.06600
C621        C  0.24874575  0.99058588  0.46214620    -0.00700
C622        C  0.23213296  0.95035177  0.43661318    -0.09200
C623        C  0.17986475  0.93652461  0.43455009     0.61200
H624        H  0.25481020  0.89003897  0.39493323     0.11900
H625        H  0.30832918  0.03712665  0.47461965     0.11900
C626        C  0.37955819  0.99658864  0.42445602     0.61400
F627        F  0.17142822  0.90295094  0.39956089    -0.23700
F628        F  0.15260154  0.97574270  0.42455254    -0.21100
F629        F  0.16544452  0.91771086  0.47707137    -0.20700
F630        F  0.38793582  0.00211671  0.37683351    -0.20800
F631        F  0.41201615  0.96518551  0.44273123    -0.21100
F632        F  0.38667471  0.03994694  0.44646388    -0.23800
C633        C  0.47523101  0.78479756  0.40345249    -0.06600
C634        C  0.43090292  0.80118454  0.42106470    -0.00700
C635        C  0.41182720  0.77972340  0.46259411    -0.09300
C636        C  0.44180411  0.75114906  0.48901824    -0.06600
C637        C  0.48717205  0.73887871  0.47317929    -0.00700
C638        C  0.50391269  0.75406755  0.42916008    -0.09200
C639        C  0.55116155  0.73689197  0.40915908     0.61200
H640        H  0.48725426  0.79504824  0.36912906     0.11900
H641        H  0.42961819  0.73799645  0.52272096     0.11900
C642        C  0.36125936  0.78511032  0.48185580     0.61400
F643        F  0.55843873  0.75178939  0.36331564    -0.23700
F644        F  0.55208114  0.68804127  0.40894659    -0.21100
F645        F  0.58820226  0.75392408  0.43655892    -0.20700
F646        F  0.32831128  0.79539572  0.44755161    -0.20800
F647        F  0.36059213  0.81984884  0.51659851    -0.21100
F648        F  0.34630543  0.74326261  0.50203642    -0.23800
C649        C  0.29972893  0.25777244  0.72901001    -0.06600
C650        C  0.25082268  0.25901356  0.73888746    -0.00700
C651        C  0.23281455  0.28835289  0.77548395    -0.09300
C652        C  0.26542341  0.31478037  0.80212856    -0.06600
C653        C  0.31440190  0.31113644  0.79377728    -0.00700
C654        C  0.33206315  0.28410149  0.75537099    -0.09200
C655        C  0.38405813  0.28175444  0.74054176     0.61200
H656        H  0.31302756  0.23610940  0.70000890     0.11900
H657        H  0.25314604  0.33665748  0.83127127     0.11900
C658        C  0.18032900  0.28946108  0.78847924     0.61400
F659        F  0.38768529  0.28740785  0.69219056    -0.23700
F660        F  0.40238562  0.23812698  0.75205779    -0.21100
F661        F  0.41141941  0.31667496  0.76135615    -0.20700
F662        F  0.16398296  0.24396364  0.79562396    -0.20800
F663        F  0.15459022  0.30996724  0.75268257    -0.21100
F664        F  0.17214923  0.31528625  0.82953058    -0.23800
C665        C  0.31273346  0.46481246  0.91203467    -0.06600
C666        C  0.30173912  0.41704295  0.91842021    -0.00700
C667        C  0.26597981  0.40327370  0.95075281    -0.09300
C668        C  0.24487107  0.43817299  0.97887757    -0.06600
C669        C  0.25714558  0.48556391  0.97359302    -0.00700
C670        C  0.29052871  0.49982205  0.93926198    -0.09200
C671        C  0.30287090  0.55152584  0.93210847     0.61200
H672        H  0.34035996  0.47430838  0.88707104     0.11900
H673        H  0.21817531  0.42851252  0.00482919     0.11900
C674        C  0.24968626  0.35263863  0.95725034     0.61400
F675        F  0.33741927  0.55732419  0.89763204    -0.23700
F676        F  0.31985848  0.57103271  0.97378738    -0.21100
F677        F  0.26265784  0.57580892  0.91845657    -0.20700
F678        F  0.26948863  0.33511507  0.99802917    -0.20800
F679        F  0.26227511  0.32371508  0.91962822    -0.21100
F680        F  0.20056594  0.35111766  0.96135474    -0.23800
C681        C  0.50772567  0.26399088  0.94492388    -0.06600
C682        C  0.48940819  0.25180382  0.98888334    -0.00700
C683        C  0.44121873  0.25797305  0.99986647    -0.09300
C684        C  0.41261084  0.27947225  0.96633238    -0.06600
C685        C  0.43167206  0.29652374  0.92347398    -0.00700
C686        C  0.47898369  0.28342909  0.91045701    -0.09200
C687        C  0.50113606  0.28577152  0.86142372     0.61200
H688        H  0.54461013  0.25589122  0.93660946     0.11900
H689        H  0.37502018  0.28285543  0.97370395     0.11900
C690        C  0.42050150  0.24117219  0.04632369     0.61400
F691        F  0.53575308  0.32060651  0.86071476    -0.23700
F692        F  0.46858486  0.29400117  0.82647354    -0.21100
F693        F  0.52244636  0.24295837  0.85046307    -0.20700
F694        F  0.44304666  0.26406479  0.08346058    -0.20800
F695        F  0.42726961  0.19301751  0.05023005    -0.21100
F696        F  0.37219737  0.25017677  0.04985101    -0.23800
C697        C  0.45959004  0.46004306  0.83701564    -0.06600
C698        C  0.41957237  0.43804771  0.81596298    -0.00700
C699        C  0.40632115  0.45135842  0.76927042    -0.09300
C700        C  0.43783257  0.48007390  0.74410686    -0.06600
C701        C  0.48052808  0.49605123  0.76359684    -0.00700
C702        C  0.49132133  0.48764392  0.81099882    -0.09200
C703        C  0.53604907  0.50763976  0.83356525     0.61200
H704        H  0.46724924  0.45361564  0.87378948     0.11900
H705        H  0.43011119  0.48960222  0.70801276     0.11900
C706        C  0.36006253  0.43741216  0.74488167     0.61400
F707        F  0.54008266  0.49480105  0.88038763    -0.23700
F708        F  0.53513627  0.55639083  0.83160432    -0.21100
F709        F  0.57577340  0.49116079  0.80962153    -0.20700
F710        F  0.35874195  0.45181995  0.69834503    -0.20800
F711        F  0.32212490  0.45883826  0.76767740    -0.21100
F712        F  0.35452789  0.38920317  0.74405409    -0.23800
C713        C  0.24193026  0.69893383  0.73820449    -0.06600
C714        C  0.22631365  0.74503158  0.74689935    -0.00700
C715        C  0.17955828  0.75817439  0.73624045    -0.09300
C716        C  0.15182422  0.72620415  0.71029323    -0.06600
C717        C  0.17022203  0.68232261  0.69460061    -0.00700
C718        C  0.21349698  0.66598464  0.71470709    -0.09200
C719        C  0.23201572  0.61539103  0.71441783     0.61200
H720        H  0.27680945  0.68827097  0.75050289     0.11900
H721        H  0.11552686  0.73559005  0.70246964     0.11900
C722        C  0.15892630  0.80467912  0.75361986     0.61400
F723        F  0.24089907  0.60225347  0.76047640    -0.23700
F724        F  0.27427371  0.61317799  0.68927598    -0.21100
F725        F  0.20099288  0.58247791  0.69572074    -0.20700
F726        F  0.18444498  0.84191431  0.73501247    -0.20800
F727        F  0.16130047  0.80684551  0.80237809    -0.21100
F728        F  0.11176538  0.80960234  0.74064734    -0.23800
C729        C  0.22506163  0.99015606  0.03821692    -0.06600
C730        C  0.23902205  0.01090032  0.99564631    -0.00700
C731        C  0.22201320  0.05668240  0.98427496    -0.09300
C732        C  0.18791464  0.07734643  0.01425060    -0.06600
C733        C  0.17480148  0.05634568  0.05682004    -0.00700
C734        C  0.19660473  0.01372377  0.07087542    -0.09200
C735        C  0.19309656  0.99205003  0.11982487     0.61200
H736        H  0.23870468  0.95584907  0.04780485     0.11900
H737        H  0.17133617  0.11036283  0.00479081     0.11900
C738        C  0.24001653  0.08470829  0.94234858     0.61400
F739        F  0.16118982  0.95478894  0.11877918    -0.23700
F740        F  0.17944474  0.02408198  0.15435616    -0.21100
F741        F  0.23716267  0.97495938  0.13309951    -0.20700
F742        F  0.22919129  0.06129025  0.90062372    -0.20800
F743        F  0.28874776  0.09099847  0.94592042    -0.21100
F744        F  0.21968646  0.12916911  0.94061431    -0.23800
C745        C  0.51440484  0.68921059  0.97733373    -0.06600
C746        C  0.51986745  0.73814024  0.98507996    -0.00700
C747        C  0.55498232  0.75499008  0.01677100    -0.09300
C748        C  0.57969333  0.72187724  0.04346072    -0.06600
C749        C  0.57030358  0.67331300  0.03912861    -0.00700
C750        C  0.53999092  0.65626866  0.00323079    -0.09200
C751        C  0.53369046  0.60437587  0.99049823     0.61200
H752        H  0.48896478  0.67621535  0.95155320     0.11900
H753        H  0.60489131  0.73402531  0.06974394     0.11900
C754        C  0.56651008  0.80716987  0.02277961     0.61400
F755        F  0.48808385  0.59022772  0.00235009    -0.23700
F756        F  0.56594569  0.57547162  0.01278029    -0.21100
F757        F  0.54007136  0.59817633  0.94234470    -0.20700
F758        F  0.52983784  0.82986012  0.04640949    -0.20800
F759        F  0.57311872  0.82738599  0.97901180    -0.21100
F760        F  0.60777621  0.81424984  0.04857816    -0.23800
C761        C  0.54968926  0.03583058  0.75948880    -0.06600
C762        C  0.53519402  0.99204726  0.74039508    -0.00700
C763        C  0.55520993  0.97624296  0.69691467    -0.09300
C764        C  0.58000201  0.00910502  0.66952160    -0.06600
C765        C  0.58676368  0.05547828  0.68559265    -0.00700
C766        C  0.57556633  0.06806299  0.73259245    -0.09200
C767        C  0.58905624  0.11575975  0.75346026     0.61200
H768        H  0.53749510  0.04638684  0.79432725     0.11900
H769        H  0.59049974  0.99996910  0.63370205     0.11900
C770        C  0.54875464  0.92646236  0.67768893     0.61400
F771        F  0.57641476  0.11984329  0.80062662    -0.23700
F772        F  0.56625942  0.15104667  0.72957408    -0.21100
F773        F  0.63773998  0.12206028  0.74988304    -0.20700
F774        F  0.50399035  0.92154448  0.65806232    -0.20800
F775        F  0.55450440  0.89414757  0.71344880    -0.21100
F776        F  0.58222285  0.91615395  0.64305419    -0.23800
C777        C  0.75142684  0.20746349  0.69973582    -0.06600
C778        C  0.72858022  0.23594786  0.73367969    -0.00700
C779        C  0.67816150  0.23939784  0.73385087    -0.09300
C780        C  0.65288214  0.21536966  0.69843880    -0.06600
C781        C  0.67573472  0.18675496  0.66470276    -0.00700
C782        C  0.72602034  0.18290633  0.66480639    -0.09200
C783        C  0.75380044  0.15545513  0.62750880     0.61200
H784        H  0.78991713  0.20495670  0.70037392     0.11900
H785        H  0.61451112  0.21799098  0.69731515     0.11900
C786        C  0.65062008  0.26811525  0.77048678     0.61400
F787        F  0.80023153  0.17171236  0.62398730    -0.23700
F788        F  0.73327572  0.16064406  0.58383951    -0.21100
F789        F  0.75521879  0.10819703  0.63882812    -0.20700
F790        F  0.66407737  0.31507504  0.76864366    -0.20800
F791        F  0.65933253  0.25059345  0.81499416    -0.21100
F792        F  0.60192988  0.26597276  0.76317387    -0.23800
C793        C  0.03602381  0.25500345  0.03179934    -0.06600
C794        C  0.01233001  0.23381817  0.99362225    -0.00700
C795        C  0.01871597  0.18559538  0.98266239    -0.09300
C796        C  0.04762092  0.15899239  0.01239917    -0.06600
C797        C  0.06887336  0.17954167  0.05249234    -0.00700
C798        C  0.06427258  0.22828450  0.06196228    -0.09200
C799        C  0.08713686  0.25116906  0.10490622     0.61200
H800        H  0.03095551  0.29238952  0.03856613     0.11900
H801        H  0.05132278  0.12129754  0.00650533     0.11900
C802        C  0.99293821  0.16227301  0.94149034     0.61400
F803        F  0.07919020  0.29937203  0.10683853    -0.23700
F804        F  0.13576096  0.24379665  0.10355380    -0.21100
F805        F  0.06843135  0.23166684  0.14541788    -0.20700
F806        F  0.00699561  0.18294801  0.89970645    -0.20800
F807        F  0.94431036  0.16783114  0.94713249    -0.21100
F808        F  0.00249811  0.11440856  0.93821964    -0.23800
C809        C  0.69083508  0.57872623  0.01322456    -0.06600
C810        C  0.69575934  0.57432011  0.06223077    -0.00700
C811        C  0.73271736  0.54642036  0.08062510    -0.09300
C812        C  0.75874519  0.51779876  0.04936968    -0.06600
C813        C  0.75110854  0.51875177  0.00035794    -0.00700
C814        C  0.71876960  0.55195015  0.98159430    -0.09200
C815        C  0.71384352  0.55964660  0.92885642     0.61200
H816        H  0.66322947  0.60154125  0.99981793     0.11900
H817        H  0.78490324  0.49392017  0.06376013     0.11900
C818        C  0.74604710  0.54569577  0.13253693     0.61400
F819        F  0.68817331  0.60010081  0.91943048    -0.23700
F820        F  0.69042359  0.52184399  0.90802285    -0.21100
F821        F  0.75846859  0.56464005  0.90860766    -0.20700
F822        F  0.73188116  0.50325825  0.15175131    -0.20800
F823        F  0.72579775  0.58231218  0.15827685    -0.21100
F824        F  0.79493644  0.55002898  0.13688540    -0.23800
C825        C  0.99082787  0.51157265  0.68042018    -0.06600
C826        C  0.01521534  0.48434052  0.71332290    -0.00700
C827        C  0.06556839  0.48195551  0.71170289    -0.09300
C828        C  0.08962244  0.51388657  0.68285063    -0.06600
C829        C  0.06482790  0.54612237  0.65502655    -0.00700
C830        C  0.01492759  0.54150318  0.64965540    -0.09200
C831        C  0.98661238  0.56759676  0.61276868     0.61200
H832        H  0.95229794  0.51035617  0.67995926     0.11900
H833        H  0.12812108  0.51628513  0.68435323     0.11900
C834        C  0.09417337  0.44681509  0.73998579     0.61400
F835        F  0.93860829  0.55634741  0.61438084    -0.23700
F836        F  0.00294968  0.55553328  0.56820688    -0.21100
F837        F  0.99066670  0.61542947  0.62001836    -0.20700
F838        F  0.07418686  0.40224710  0.73585983    -0.20800
F839        F  0.09517559  0.46062590  0.78695164    -0.21100
F840        F  0.14071911  0.44381055  0.72386745    -0.23800
C841        C  0.68244712  0.76742966  0.21249818    -0.06600
C842        C  0.73169507  0.75952838  0.21049504    -0.00700
C843        C  0.75105455  0.73083948  0.17412777    -0.09300
C844        C  0.71963864  0.70329378  0.14708005    -0.06600
C845        C  0.67037756  0.70577131  0.15479736    -0.00700
C846        C  0.65123369  0.74171751  0.18410562    -0.09200
C847        C  0.59863430  0.75307766  0.18811980     0.61200
H848        H  0.66763815  0.79187764  0.23836868     0.11900
H849        H  0.73371017  0.67682153  0.12288323     0.11900
C850        C  0.80414112  0.72725405  0.16519050     0.61400
F851        F  0.58174225  0.73913556  0.23172751    -0.23700
F852        F  0.57209564  0.73141962  0.15313375    -0.21100
F853        F  0.59222685  0.80129762  0.18407254    -0.20700
F854        F  0.82402887  0.69558376  0.19612475    -0.20800
F855        F  0.82556737  0.77100560  0.17105539    -0.21100
F856        F  0.81333451  0.71186484  0.11948108    -0.23800
C857        C  0.99421061  0.03928563  0.24168191    -0.06600
C858        C  0.98381261  0.99391023  0.22487326    -0.00700
C859        C  0.99312437  0.98104141  0.17779662    -0.09300
C860        C  0.01854235  0.01298595  0.15016671    -0.06600
C861        C  0.03527938  0.05634279  0.16910917    -0.00700
C862        C  0.01695243  0.07222939  0.21348621    -0.09200
C863        C  0.01871015  0.12249246  0.23332094     0.61200
H864        H  0.98348238  0.04950714  0.27722645     0.11900
H865        H  0.02541996  0.00387483  0.11366906     0.11900
C866        C  0.97550373  0.93452822  0.15708313     0.61400
F867        F  0.97393472  0.13501522  0.24971664    -0.23700
F868        F  0.03158279  0.15568148  0.20051791    -0.21100
F869        F  0.05005713  0.12472074  0.27084973    -0.20700
F870        F  0.92660252  0.93153904  0.16239367    -0.20800
F871        F  0.99654788  0.89734960  0.18021574    -0.21100
F872        F  0.98608266  0.93020012  0.10944151    -0.23800
C873        C  0.98633354  0.73599063  0.54919774    -0.06600
C874        C  0.99035968  0.72550048  0.50119871    -0.00700
C875        C  0.02112831  0.68988682  0.48430381    -0.09300
C876        C  0.04977223  0.66711942  0.51684566    -0.06600
C877        C  0.04769244  0.67896023  0.56491845    -0.00700
C878        C  0.01334295  0.71180402  0.58218157    -0.09200
C879        C  0.00231215  0.72205290  0.63404579     0.61200
H880        H  0.96144733  0.76294161  0.56097655     0.11900
H881        H  0.07525628  0.64113487  0.50460230     0.11900
C882        C  0.02440159  0.67699813  0.43213327     0.61400
F883        F  0.95355718  0.71985565  0.64113947    -0.23700
F884        F  0.01787695  0.76704126  0.64573382    -0.21100
F885        F  0.02261088  0.69038442  0.66464843    -0.20700
F886        F  0.03707125  0.71628577  0.40637799    -0.20800
F887        F  0.98076756  0.66039041  0.41661868    -0.21100
F888        F  0.05795491  0.64221441  0.42341692    -0.23800
C889        C  0.72863190  0.04020239  0.48948979    -0.06600
C890        C  0.73909067  0.99752565  0.51123255    -0.00700
C891        C  0.72235926  0.98775794  0.55681206    -0.09300
C892        C  0.69244299  0.02094028  0.57874679    -0.06600
C893        C  0.68050146  0.06336987  0.55632147    -0.00700
C894        C  0.70101473  0.07449704  0.51185588    -0.09200
C895        C  0.69636750  0.12118009  0.48601386     0.61200
H896        H  0.74272904  0.04704225  0.45447899     0.11900
H897        H  0.67716804  0.01327237  0.61294587     0.11900
C898        C  0.73700910  0.94306061  0.58178504     0.61400
F899        F  0.74107415  0.13618800  0.47177786    -0.23700
F900        F  0.67704431  0.15722475  0.51300262    -0.21100
F901        F  0.66850663  0.11441004  0.44632362    -0.20700
F902        F  0.78615982  0.94138107  0.58464727    -0.20800
F903        F  0.72097421  0.90389535  0.55684163    -0.21100
F904        F  0.71860536  0.94119589  0.62710699    -0.23800
C905        C  0.78924385  0.95971731  0.91418425    -0.06600
C906        C  0.82201389  0.93037602  0.93646111    -0.00700
C907        C  0.82958837  0.93455502  0.98572717    -0.09300
C908        C  0.80303769  0.96821056  0.01110993    -0.06600
C909        C  0.76860525  0.99575960  0.98896580    -0.00700
C910        C  0.76132393  0.99177443  0.93951644    -0.09200
C911        C  0.72224242  0.01812761  0.91355919     0.61200
H912        H  0.78384567  0.95527147  0.87655747     0.11900
H913        H  0.80709221  0.97164838  0.04902830     0.11900
C914        C  0.86163305  0.90116582  0.01225892     0.61400
F915        F  0.71889697  0.00420038  0.86664009    -0.23700
F916        F  0.73160415  0.06608320  0.91444995    -0.21100
F917        F  0.67855424  0.00932904  0.93450242    -0.20700
F918        F  0.90769389  0.90387373  0.99542861    -0.20800
F919        F  0.84456158  0.85571814  0.00679740    -0.21100
F920        F  0.86284244  0.91156019  0.06014747    -0.23800
C921        C  0.96299342  0.90571498  0.78586009    -0.06600
C922        C  0.93122653  0.92985669  0.81556726    -0.00700
C923        C  0.93360602  0.97952908  0.81985143    -0.09300
C924        C  0.96781246  0.00349864  0.79293784    -0.06600
C925        C  0.99858782  0.97933463  0.76183661    -0.00700
C926        C  0.99699859  0.92931126  0.75881822    -0.09200
C927        C  0.02877912  0.90053990  0.72577974     0.61200
H928        H  0.95978222  0.86780029  0.78288177     0.11900
H929        H  0.96956396  0.04169993  0.79452985     0.11900
C930        C  0.89834999  0.00729813  0.84978687     0.61400
F931        F  0.01933200  0.85260683  0.72817409    -0.23700
F932        F  0.07596798  0.90731133  0.73796383    -0.21100
F933        F  0.02158747  0.91399992  0.67957097    -0.20700
F934        F  0.90461557  0.99727816  0.89693752    -0.20800
F935        F  0.85255843  0.99553422  0.83641206    -0.21100
F936        F  0.90381369  0.05554434  0.84444120    -0.23800
C937        C  0.76312350  0.78907721  0.82761389    -0.06600
C938        C  0.81014600  0.79981700  0.81288280    -0.00700
C939        C  0.82811133  0.77699312  0.77104663    -0.09300
C940        C  0.79631265  0.75117054  0.74312402    -0.06600
C941        C  0.74904467  0.74425104  0.75646386    -0.00700
C942        C  0.73182190  0.76256134  0.79948130    -0.09200
C943        C  0.68093566  0.75368868  0.81569737     0.61200
H944        H  0.75041803  0.80046501  0.86168964     0.11900
H945        H  0.80866686  0.73600293  0.70990581     0.11900
C946        C  0.87906869  0.77840860  0.75198710     0.61400
F947        F  0.67261838  0.77126112  0.86080724    -0.23700
F948        F  0.67172066  0.70568139  0.81579815    -0.21100
F949        F  0.64956891  0.77548282  0.78547830    -0.20700
F950        F  0.88105366  0.80845054  0.71390849    -0.20800
F951        F  0.89222672  0.73368468  0.73655981    -0.21100
F952        F  0.91269090  0.79235023  0.78442916    -0.23800
C953        C  0.91392457  0.78990183  0.96454169    -0.06600
C954        C  0.93751021  0.81820685  0.93179892    -0.00700
C955        C  0.98760427  0.82158101  0.93180221    -0.09300
C956        C  0.01269455  0.79459195  0.96442761    -0.06600
C957        C  0.98910356  0.76366865  0.99511155    -0.00700
C958        C  0.93854276  0.76198084  0.99625119    -0.09200
C959        C  0.90995811  0.72897866  0.02772714     0.61200
H960        H  0.87549469  0.78752490  0.96270928     0.11900
H961        H  0.05126404  0.79538095  0.96439612     0.11900
C962        C  0.01449848  0.85002088  0.89532164     0.61400
F963        F  0.86134703  0.73318010  0.02087084    -0.23700
F964        F  0.91880521  0.73953253  0.07468474    -0.21100
F965        F  0.92196605  0.68254370  0.01783191    -0.20700
F966        F  0.00287590  0.89722096  0.89958894    -0.20800
F967        F  0.00286091  0.83365605  0.85071842    -0.21100
F968        F  0.06333762  0.84611654  0.90041412    -0.23800
loop_ 
_geom_bond_atom_site_label_1 
_geom_bond_atom_site_label_2 
_geom_bond_distance 
_geom_bond_site_symmetry_2 
_ccdc_geom_bond_type 
C1            C2   1.521       .  S
C1            C7   1.533       .  S
C1            C5   1.542       .  S
C1          C938   1.526       .  S
C2            H9   1.088       .  S
C2            C3   1.361       .  D
C3            C4   1.530       .  S
C3          C954   1.463       .  S
C4            C8   1.533       .  S
C4            C6   1.531       .  S
C4           H10   1.105       .  S
C5           H11   1.083       .  S
C5            C6   1.365       .  D
C6          C906   1.471       .  S
C7           H12   1.085       .  S
C7            C8   1.365       .  D
C8          C922   1.472       .  S
N13          N14   1.317       .  A
N13          N19   1.316       .  A
N13         Mn42   2.190       .  S
N14          C21   1.351       .  A
N15          N17   1.316       .  A
N15          N16   1.334       .  A
N15         Mn31   2.266       .  S
N16          C22   1.363       .  A
N17          N18   1.334       .  A
N17         Mn42   2.265       .  S
N18          C22   1.363       .  A
N19          N20   1.311       .  A
N19         Mn31   2.160       .  S
N20          C21   1.345       .  A
C21         C890   1.446       .  S
C22         C294   1.528   1_565  S
N23          N29   1.317       .  A
N23          N24   1.318       .  A
N23         Mn53   2.196       .  S
N24          C32   1.353       .  A
N25          N26   1.331       .  A
N25          N27   1.318       .  A
N25         Mn31   2.253       .  S
N26          C33   1.360       .  A
N27          N28   1.337       .  A
N27         Mn53   2.278       .  S
N28          C33   1.366       .  A
N29          N30   1.308       .  A
N29         Mn31   2.156       .  S
N30          C32   1.343       .  A
Mn31        Cl55   2.550       .  S
C32         C858   1.443       .  S
C33         C203   1.529   1_655  S
N34          N35   1.311       .  A
N34          N40   1.316       .  A
N34         Mn42   2.164       .  S
N35          C43   1.346       .  A
N36          N38   1.318       .  A
N36          N37   1.333       .  A
N36         Mn54   2.263       .  S
N37          C44   1.362       .  A
N38          N39   1.332       .  A
N38         Mn42   2.260       .  S
N39          C44   1.362       .  A
N40          N41   1.319       .  A
N40         Mn54   2.201       .  S
N41          C43   1.355       .  A
Mn42        Cl55   2.561       .  S
C43         C842   1.462       .  S
C44         C407   1.522       .  S
N45          N46   1.313       .  A
N45          N51   1.319       .  A
N45         Mn53   2.179       .  S
N46          C56   1.347       .  A
N47          N48   1.334       .  A
N47          N49   1.320       .  A
N47         Mn54   2.267       .  S
N48          C57   1.363       .  A
N49          N50   1.333       .  A
N49         Mn53   2.266       .  S
N50          C57   1.361       .  A
N51          N52   1.314       .  A
N51         Mn54   2.180       .  S
N52          C56   1.345       .  A
Mn53        Cl55   2.570       .  S
Mn54        Cl55   2.560       .  S
C56         C874   1.437       .  S
C57         C237   1.524   1_655  S
N58          N59   1.337   1_655  A
N58          N64   1.320       .  A
N58         Mn87   2.286       .  S
N59          C66   1.366   1_455  A
N60          N62   1.318       .  A
N60          N61   1.318       .  A
N60         Mn76   2.202       .  S
N61          C67   1.352       .  A
N62          N63   1.315       .  A
N62         Mn87   2.175       .  S
N63          C67   1.345       .  A
N64          N65   1.331       .  A
N64         Mn76   2.259       .  S
N65          C66   1.360       .  A
C66         C248   1.528   1_655  S
C67         C794   1.453   1_655  S
N68          N74   1.320       .  A
N68          N69   1.331       .  A
N68         Mn98   2.259       .  S
N69          C77   1.360       .  A
N70          N71   1.317       .  A
N70          N72   1.317       .  A
N70         Mn76   2.192       .  S
N71          C78   1.351       .  A
N72          N73   1.319       .  A
N72         Mn98   2.206       .  S
N73          C78   1.353       .  A
N74          N75   1.333       .  A
N74         Mn76   2.266       .  S
N75          C77   1.362       .  A
Mn76       Cl100   2.564       .  S
C77         C305   1.518   1_556  S
C78         C813   1.478   1_556  S
N79          N80   1.333       .  A
N79          N85   1.319       .  A
N79         Mn87   2.273       .  S
N80          C88   1.364       .  A
N81          N83   1.318       .  A
N81          N82   1.313       .  A
N81         Mn99   2.184       .  S
N82          C89   1.348       .  A
N83          N84   1.317   1_655  A
N83         Mn87   2.176       .  S
N84          C89   1.348   1_455  A
N85          N86   1.331       .  A
N85         Mn99   2.253       .  S
N86          C88   1.359       .  A
Mn87       Cl100   2.570       .  S
C88         C227   1.518   1_655  S
C89         C826   1.463   1_655  S
N90          N91   1.334       .  A
N90          N96   1.320       .  A
N90         Mn98   2.272       .  S
N91         C101   1.363       .  A
N92          N93   1.315       .  A
N92          N94   1.315       .  A
N92         Mn99   2.183       .  S
N93         C102   1.351       .  A
N94          N95   1.316       .  A
N94         Mn98   2.184       .  S
N95         C102   1.350       .  A
N96          N97   1.333       .  A
N96         Mn99   2.264       .  S
N97         C101   1.361       .  A
Mn98       Cl100   2.569       .  S
Mn99       Cl100   2.551       .  S
C101        C431   1.523       .  S
C102        C778   1.472       .  S
N103        N104   1.312       .  A
N103        N109   1.316       .  A
N103       Mn132   2.166       .  S
N104        C111   1.347       .  A
N105        N107   1.317       .  A
N105        N106   1.339       .  A
N105       Mn121   2.297       .  S
N106        C112   1.370       .  A
N107        N108   1.331       .  A
N107       Mn132   2.244       .  S
N108        C112   1.358       .  A
N109        N110   1.319       .  A
N109       Mn121   2.209       .  S
N110        C111   1.355       .  A
C111        C746   1.469       .  S
C112        C272   1.532   1_556  S
N113        N119   1.320       .  A
N113        N114   1.316       .  A
N113       Mn143   2.178       .  S
N114        C122   1.347       .  A
N115        N116   1.334       .  A
N115        N117   1.322       .  A
N115       Mn121   2.268       .  S
N116        C123   1.362       .  A
N117        N118   1.337   1_565  A
N117       Mn143   2.296       .  S
N118        C123   1.367   1_545  A
N119        N120   1.312       .  A
N119       Mn121   2.204       .  S
N120        C122   1.353       .  A
Mn121      Cl145   2.572       .  S
C122        C730   1.473   1_565  S
C123        C283   1.536   1_566  S
N124        N125   1.308       .  A
N124        N130   1.316       .  A
N124       Mn132   2.142       .  S
N125        C133   1.341       .  A
N126        N128   1.316       .  A
N126        N127   1.329       .  A
N126       Mn144   2.238       .  S
N127        C134   1.358       .  A
N128        N129   1.330       .  A
N128       Mn132   2.245       .  S
N129        C134   1.359       .  A
N130        N131   1.320       .  A
N130       Mn144   2.209       .  S
N131        C133   1.355       .  A
Mn132      Cl145   2.551       .  S
C133        C714   1.446       .  S
C134        C396   1.506       .  S
N135        N136   1.314       .  A
N135        N141   1.316       .  A
N135       Mn143   2.180       .  S
N136        C146   1.352       .  A
N137        N138   1.331       .  A
N137        N139   1.319       .  A
N137       Mn144   2.240       .  S
N138        C147   1.357       .  A
N139        N140   1.340   1_565  A
N139       Mn143   2.313       .  S
N140        C147   1.372   1_545  A
N141        N142   1.318       .  A
N141       Mn144   2.204       .  S
N142        C146   1.353       .  A
Mn143      Cl145   2.570       .  S
Mn144      Cl145   2.565       .  S
C146        C762   1.478       .  S
C147        C192   1.536   1_565  S
C148        C149   1.534       .  S
C148        C154   1.519       .  S
C148        C152   1.538       .  S
C148        C685   1.514       .  S
C149        H156   1.082       .  S
C149        C150   1.375       .  D
C150        C151   1.536       .  S
C150        C698   1.495       .  S
C151        C155   1.529       .  S
C151        C153   1.521       .  S
C151        H157   1.097       .  S
C152        H158   1.086       .  S
C152        C153   1.353       .  D
C153        C666   1.456       .  S
C154        H159   1.087       .  S
C154        C155   1.357       .  D
C155        C653   1.453       .  S
C160        C161   1.532       .  S
C160        C166   1.548       .  S
C160        C164   1.519       .  S
C160        C634   1.522       .  S
C161        H168   1.082       .  S
C161        C162   1.360       .  D
C162        C163   1.527       .  S
C162        C618   1.463       .  S
C163        C167   1.524       .  S
C163        C165   1.526       .  S
C163        H169   1.103       .  S
C164        H170   1.087       .  S
C164        C165   1.356       .  D
C165        C586   1.454       .  S
C166        H171   1.082       .  S
C166        C167   1.374       .  D
C167        C602   1.476       .  S
C172        C173   1.530       .  S
C172        C178   1.523       .  S
C172        C176   1.547       .  S
C172        C541   1.518       .  S
C173        H180   1.081       .  S
C173        C174   1.365       .  D
C174        C175   1.531       .  S
C174        C570   1.464       .  S
C175        C179   1.518       .  S
C175        C177   1.527       .  S
C175        H181   1.099       .  S
C176        H182   1.082       .  S
C176        C177   1.371       .  D
C177        C554   1.483       .  S
C178        H183   1.087       .  S
C178        C179   1.347       .  D
C179        C522   1.450       .  S
N184        N185   1.337       .  A
N184        N190   1.319       .  A
N184       Mn213   2.284       .  S
N185        C192   1.365       .  A
N186        N188   1.317       .  A
N186        N187   1.318   1_545  A
N186       Mn202   2.192       .  S
N187        C193   1.351   1_565  A
N188        N189   1.314       .  A
N188       Mn213   2.191       .  S
N189        C193   1.352       .  A
N190        N191   1.334   1_545  A
N190       Mn202   2.276       .  S
N191        C192   1.365   1_565  A
C193        C621   1.475   1_545  S
N194        N200   1.319       .  A
N194        N195   1.331   1_455  A
N194       Mn224   2.263       .  S
N195        C203   1.361   1_645  A
N196        N197   1.316   1_545  A
N196        N198   1.318       .  A
N196       Mn202   2.200       .  S
N197        C204   1.350   1_565  A
N198        N199   1.316       .  A
N198       Mn224   2.186       .  S
N199        C204   1.351       .  A
N200        N201   1.336   1_545  A
N200       Mn202   2.277       .  S
N201        C203   1.366       .  A
Mn202      Cl226   2.567       .  S
C204        C925   1.470   1_445  S
N205        N206   1.335       .  A
N205        N211   1.319       .  A
N205       Mn213   2.286       .  S
N206        C214   1.366       .  A
N207        N209   1.316       .  A
N207        N208   1.316       .  A
N207       Mn225   2.183       .  S
N208        C215   1.349       .  A
N209        N210   1.310       .  A
N209       Mn213   2.167       .  S
N210        C215   1.348       .  A
N211        N212   1.332       .  A
N211       Mn225   2.243       .  S
N212        C214   1.359       .  A
Mn213      Cl226   2.558       .  S
C214        C351   1.525       .  S
C215        C650   1.455       .  S
N216        N217   1.335   1_455  A
N216        N222   1.318       .  A
N216       Mn224   2.278       .  S
N217        C227   1.366   1_655  A
N218        N219   1.315       .  A
N218        N220   1.315       .  A
N218       Mn225   2.189       .  S
N219        C228   1.351       .  A
N220        N221   1.314   1_455  A
N220       Mn224   2.165       .  S
N221        C228   1.347   1_655  A
N222        N223   1.329       .  A
N222       Mn225   2.241       .  S
N223        C227   1.356       .  A
Mn224      Cl226   2.567       .  S
Mn225      Cl226   2.555       .  S
C228        C557   1.445   1_455  S
N229        N230   1.333       .  A
N229        N235   1.317       .  A
N229       Mn258   2.260       .  S
N230        C237   1.363       .  A
N231        N233   1.315       .  A
N231        N232   1.313       .  A
N231       Mn247   2.178       .  S
N232        C238   1.352       .  A
N233        N234   1.313       .  A
N233       Mn258   2.169       .  S
N234        C238   1.346       .  A
N235        N236   1.334   1_455  A
N235       Mn247   2.264       .  S
N236        C237   1.362   1_655  A
C238        C538   1.445       .  S
N239        N245   1.319       .  A
N239        N240   1.336   1_554  A
N239       Mn269   2.278       .  S
N240        C248   1.365       .  A
N241        N242   1.312       .  A
N241        N243   1.318       .  A
N241       Mn247   2.174       .  S
N242        C249   1.345       .  A
N243        N244   1.316       .  A
N243       Mn269   2.194       .  S
N244        C249   1.353       .  A
N245        N246   1.331       .  A
N245       Mn247   2.258       .  S
N246        C248   1.361   1_554  A
Mn247      Cl271   2.555       .  S
C249        C957   1.465   1_454  S
N250        N251   1.329       .  A
N250        N256   1.318       .  A
N250       Mn258   2.240       .  S
N251        C259   1.357       .  A
N252        N254   1.315       .  A
N252        N253   1.308       .  A
N252       Mn270   2.163       .  S
N253        C260   1.346       .  A
N254        N255   1.318       .  A
N254       Mn258   2.181       .  S
N255        C260   1.353       .  A
N256        N257   1.337       .  A
N256       Mn270   2.284       .  S
N257        C259   1.368       .  A
Mn258      Cl271   2.565       .  S
C259        C373   1.524       .  S
C260        C589   1.453       .  S
N261        N262   1.336   1_554  A
N261        N267   1.319       .  A
N261       Mn269   2.290       .  S
N262        C272   1.368   1_556  A
N263        N264   1.317       .  A
N263        N265   1.319       .  A
N263       Mn270   2.191       .  S
N264        C273   1.350       .  A
N265        N266   1.312   1_554  A
N265       Mn269   2.172       .  S
N266        C273   1.343   1_556  A
N267        N268   1.333       .  A
N267       Mn270   2.259       .  S
N268        C272   1.360       .  A
Mn269      Cl271   2.568       .  S
Mn270      Cl271   2.552       .  S
C273        C669   1.442   1_554  S
N274        N275   1.310       .  A
N274        N280   1.318       .  A
N274       Mn303   2.166       .  S
N275        C282   1.343       .  A
N276        N278   1.319       .  A
N276        N277   1.335       .  A
N276       Mn292   2.278       .  S
N277        C283   1.366       .  A
N278        N279   1.335   1_554  A
N278       Mn303   2.269       .  S
N279        C283   1.363   1_556  A
N280        N281   1.318       .  A
N280       Mn292   2.205       .  S
N281        C282   1.355       .  A
C282        C909   1.460   1_544  S
N284        N290   1.317       .  A
N284        N285   1.310       .  A
N284       Mn314   2.157       .  S
N285        C293   1.342       .  A
N286        N287   1.335   1_545  A
N286        N288   1.320       .  A
N286       Mn292   2.278       .  S
N287        C294   1.364   1_565  A
N288        N289   1.333       .  A
N288       Mn314   2.263       .  S
N289        C294   1.361       .  A
N290        N291   1.315       .  A
N290       Mn292   2.192       .  S
N291        C293   1.353       .  A
Mn292      Cl316   2.575       .  S
C293        C605   1.451       .  S
N295        N296   1.308       .  A
N295        N301   1.316       .  A
N295       Mn303   2.153       .  S
N296        C304   1.343       .  A
N297        N299   1.318       .  A
N297        N298   1.332       .  A
N297       Mn315   2.251       .  S
N298        C305   1.360       .  A
N299        N300   1.333   1_554  A
N299       Mn303   2.264       .  S
N300        C305   1.362   1_556  A
N301        N302   1.316       .  A
N301       Mn315   2.178       .  S
N302        C304   1.348       .  A
Mn303      Cl316   2.547       .  S
C304        C682   1.435   1_554  S
N306        N307   1.313       .  A
N306        N312   1.316       .  A
N306       Mn314   2.161       .  S
N307        C317   1.345       .  A
N308        N309   1.331       .  A
N308        N310   1.316       .  A
N308       Mn315   2.248       .  S
N309        C318   1.360       .  A
N310        N311   1.331       .  A
N310       Mn314   2.255       .  S
N311        C318   1.361       .  A
N312        N313   1.313       .  A
N312       Mn315   2.186       .  S
N313        C317   1.351       .  A
Mn314      Cl316   2.548       .  S
Mn315      Cl316   2.562       .  S
C317        C525   1.452       .  S
C318        C386   1.513       .  S
C319        C320   1.529       .  S
C319        C325   1.549       .  S
C319        C323   1.543       .  S
C319        C509   1.535       .  S
C320        H327   1.087       .  S
C320        C321   1.362       .  D
C321        C322   1.522       .  S
C321        C845   1.462       .  S
C322        C326   1.522       .  S
C322        C324   1.522       .  S
C322        H328   1.112       .  S
C323        H329   1.084       .  S
C323        C324   1.370       .  D
C324        C749   1.465       .  S
C325        H330   1.085       .  S
C325        C326   1.364       .  D
C326        C810   1.472       .  S
C331        C332   1.527       .  S
C331        C337   1.536       .  S
C331        C335   1.534       .  S
C331        C717   1.512       .  S
C332        H339   1.087       .  S
C332        C333   1.363       .  D
C333        C334   1.524       .  S
C333        C829   1.471       .  S
C334        C338   1.531       .  S
C334        C336   1.532       .  S
C334        H340   1.105       .  S
C335        H341   1.085       .  S
C335        C336   1.360       .  D
C336        C493   1.465       .  S
C337        H342   1.084       .  S
C337        C338   1.358       .  D
C338        C877   1.458       .  S
N343        N344   1.337       .  A
N343        N349   1.317       .  A
N343       Mn372   2.294       .  S
N344        C351   1.369       .  A
N345        N347   1.316       .  A
N345        N346   1.316       .  A
N345       Mn361   2.190       .  S
N346        C352   1.349       .  A
N347        N348   1.318       .  A
N347       Mn372   2.188       .  S
N348        C352   1.350       .  A
N349        N350   1.330       .  A
N349       Mn361   2.235       .  S
N350        C351   1.356       .  A
C352        C490   1.456       .  S
N353        N359   1.318       .  A
N353        N354   1.330       .  A
N353       Mn383   2.252       .  S
N354        C362   1.360       .  A
N355        N356   1.314       .  A
N355        N357   1.315       .  A
N355       Mn361   2.175       .  S
N356        C363   1.348       .  A
N357        N358   1.317       .  A
N357       Mn383   2.190       .  S
N358        C363   1.352       .  A
N359        N360   1.329       .  A
N359       Mn361   2.236       .  S
N360        C362   1.357       .  A
Mn361      Cl385   2.555       .  S
C362        C418   1.505       .  S
C363        C474   1.458       .  S
N364        N365   1.332       .  A
N364        N370   1.321       .  A
N364       Mn372   2.272       .  S
N365        C373   1.363       .  A
N366        N368   1.319       .  A
N366        N367   1.323       .  A
N366       Mn384   2.224       .  S
N367        C374   1.358       .  A
N368        N369   1.312       .  A
N368       Mn372   2.184       .  S
N369        C374   1.345       .  A
N370        N371   1.334       .  A
N370       Mn384   2.265       .  S
N371        C373   1.362       .  A
Mn372      Cl385   2.563       .  S
C374        C458   1.483       .  S
N375        N376   1.329       .  A
N375        N381   1.320       .  A
N375       Mn383   2.241       .  S
N376        C386   1.356       .  A
N377        N378   1.319       .  A
N377        N379   1.320       .  A
N377       Mn384   2.207       .  S
N378        C387   1.352       .  A
N379        N380   1.317       .  A
N379       Mn383   2.196       .  S
N380        C387   1.349       .  A
N381        N382   1.333       .  A
N381       Mn384   2.270       .  S
N382        C386   1.363       .  A
Mn383      Cl385   2.562       .  S
Mn384      Cl385   2.574       .  S
C387        C506   1.469       .  S
N388        N389   1.329       .  A
N388        N394   1.317       .  A
N388       Mn417   2.240       .  S
N389        C396   1.358       .  A
N390        N392   1.316       .  A
N390        N391   1.315       .  A
N390       Mn406   2.178       .  S
N391        C397   1.348       .  A
N392        N393   1.315       .  A
N392       Mn417   2.185       .  S
N393        C397   1.350       .  A
N394        N395   1.330       .  A
N394       Mn406   2.248       .  S
N395        C396   1.360       .  A
C397        C637   1.452       .  S
N398        N404   1.318       .  A
N398        N399   1.335       .  A
N398       Mn428   2.279       .  S
N399        C407   1.365       .  A
N400        N401   1.317       .  A
N400        N402   1.317       .  A
N400       Mn406   2.185       .  S
N401        C408   1.349       .  A
N402        N403   1.313       .  A
N402       Mn428   2.181       .  S
N403        C408   1.348       .  A
N404        N405   1.330       .  A
N404       Mn406   2.241       .  S
N405        C407   1.358       .  A
Mn406      Cl430   2.564       .  S
C408        C941   1.453       .  S
N409        N410   1.330       .  A
N409        N415   1.318       .  A
N409       Mn417   2.243       .  S
N410        C418   1.359       .  A
N411        N413   1.316       .  A
N411        N412   1.319       .  A
N411       Mn429   2.207       .  S
N412        C419   1.354       .  A
N413        N414   1.313       .  A
N413       Mn417   2.164       .  S
N414        C419   1.345       .  A
N415        N416   1.330       .  A
N415       Mn429   2.250       .  S
N416        C418   1.359       .  A
Mn417      Cl430   2.553       .  S
C419        C701   1.452       .  S
N420        N421   1.334       .  A
N420        N426   1.319       .  A
N420       Mn428   2.278       .  S
N421        C431   1.364       .  A
N422        N423   1.318       .  A
N422        N424   1.317       .  A
N422       Mn429   2.197       .  S
N423        C432   1.351       .  A
N424        N425   1.311       .  A
N424       Mn428   2.172       .  S
N425        C432   1.348       .  A
N426        N427   1.332       .  A
N426       Mn429   2.251       .  S
N427        C431   1.360       .  A
Mn428      Cl430   2.552       .  S
Mn429      Cl430   2.560       .  S
C432        C573   1.466       .  S
C433        C434   1.527       .  S
C433        C439   1.542       .  S
C433        C437   1.544       .  S
C433        C477   1.532       .  S
C434        H441   1.087       .  S
C434        C435   1.361       .  D
C435        C436   1.526       .  S
C435        C765   1.462       .  S
C436        C440   1.529       .  S
C436        C438   1.525       .  S
C436        H442   1.108       .  S
C437        H443   1.085       .  S
C437        C438   1.367       .  D
C438        C781   1.474       .  S
C439        H444   1.081       .  S
C439        C440   1.362       .  D
C440        C893   1.466       .  S
C445        C446   1.534       .  S
C445        C451   1.514       .  S
C445        C449   1.540       .  S
C445        C861   1.512       .  S
C446        H453   1.082       .  S
C446        C447   1.360       .  D
C447        C448   1.535       .  S
C447        C733   1.463       .  S
C448        C452   1.536       .  S
C448        C450   1.534       .  S
C448        H454   1.106       .  S
C449        H455   1.084       .  S
C449        C450   1.367       .  D
C450        C461   1.484       .  S
C451        H456   1.088       .  S
C451        C452   1.354       .  D
C452        C797   1.461       .  S
C457        C458   1.405       .  A
C457        C462   1.409       .  A
C457        H464   1.083       .  S
C458        C459   1.424       .  A
C459        C466   1.524       .  S
C459        C460   1.396       .  A
C460        C461   1.399       .  A
C460        H465   1.081       .  S
C461        C462   1.420       .  A
C462        C463   1.520       .  S
C463        F467   1.377       .  S
C463        F468   1.379       .  S
C463        F469   1.385       .  S
C466        F470   1.383       .  S
C466        F471   1.383       .  S
C466        F472   1.386       .  S
C473        C474   1.393       .  A
C473        C478   1.395       .  A
C473        H480   1.086       .  S
C474        C475   1.405       .  A
C475        C482   1.519       .  S
C475        C476   1.402       .  A
C476        C477   1.416       .  A
C476        H481   1.076       .  S
C477        C478   1.431       .  A
C478        C479   1.520       .  S
C479        F483   1.383       .  S
C479        F484   1.368       .  S
C479        F485   1.384       .  S
C482        F486   1.382       .  S
C482        F487   1.384       .  S
C482        F488   1.384       .  S
C489        C490   1.399       .  A
C489        C494   1.405       .  A
C489        H496   1.083       .  S
C490        C491   1.413       .  A
C491        C498   1.521       .  S
C491        C492   1.397       .  A
C492        C493   1.398       .  A
C492        H497   1.083       .  S
C493        C494   1.416       .  A
C494        C495   1.520       .  S
C495        F499   1.381       .  S
C495        F500   1.381       .  S
C495        F501   1.385       .  S
C498        F502   1.382       .  S
C498        F503   1.383       .  S
C498        F504   1.384       .  S
C505        C506   1.396       .  A
C505        C510   1.402       .  A
C505        H512   1.086       .  S
C506        C507   1.414       .  A
C507        C514   1.522       .  S
C507        C508   1.403       .  A
C508        C509   1.413       .  A
C508        H513   1.080       .  S
C509        C510   1.430       .  A
C510        C511   1.520       .  S
C511        F515   1.385       .  S
C511        F516   1.383       .  S
C511        F517   1.374       .  S
C514        F518   1.383       .  S
C514        F519   1.383       .  S
C514        F520   1.385       .  S
C521        C522   1.398       .  A
C521        C526   1.397       .  A
C521        H528   1.084       .  S
C522        C523   1.410       .  A
C523        C530   1.517       .  S
C523        C524   1.389       .  A
C524        C525   1.400       .  A
C524        H529   1.084       .  S
C525        C526   1.414       .  A
C526        C527   1.519       .  S
C527        F531   1.385       .  S
C527        F532   1.383       .  S
C527        F533   1.382       .  S
C530        F534   1.381       .  S
C530        F535   1.385       .  S
C530        F536   1.381       .  S
C537        C538   1.390   1_655  A
C537        C542   1.392       .  A
C537        H544   1.084       .  S
C538        C539   1.400       .  A
C539        C546   1.520       .  S
C539        C540   1.396   1_455  A
C540        C541   1.417       .  A
C540        H545   1.072   1_655  S
C541        C542   1.437       .  A
C542        C543   1.531       .  S
C543        F547   1.372       .  S
C543        F548   1.386       .  S
C543        F549   1.382       .  S
C546        F550   1.382       .  S
C546        F551   1.383       .  S
C546        F552   1.384       .  S
C553        C554   1.411       .  A
C553        C558   1.396       .  A
C553        H560   1.083       .  S
C554        C555   1.428       .  A
C555        C562   1.522       .  S
C555        C556   1.396       .  A
C556        C557   1.392       .  A
C556        H561   1.084       .  S
C557        C558   1.402       .  A
C558        C559   1.518   1_655  S
C559        F563   1.384       .  S
C559        F564   1.383       .  S
C559        F565   1.383       .  S
C562        F566   1.381       .  S
C562        F567   1.375       .  S
C562        F568   1.385       .  S
C569        C570   1.403       .  A
C569        C574   1.400       .  A
C569        H576   1.081       .  S
C570        C571   1.412       .  A
C571        C578   1.523       .  S
C571        C572   1.391       .  A
C572        C573   1.405       .  A
C572        H577   1.085       .  S
C573        C574   1.415       .  A
C574        C575   1.519       .  S
C575        F579   1.385       .  S
C575        F580   1.383       .  S
C575        F581   1.382       .  S
C578        F582   1.382       .  S
C578        F583   1.385       .  S
C578        F584   1.383       .  S
C585        C586   1.403       .  A
C585        C590   1.401       .  A
C585        H592   1.083       .  S
C586        C587   1.419       .  A
C587        C594   1.528       .  S
C587        C588   1.383       .  A
C588        C589   1.399       .  A
C588        H593   1.085       .  S
C589        C590   1.410       .  A
C590        C591   1.516       .  S
C591        F595   1.385       .  S
C591        F596   1.382       .  S
C591        F597   1.384       .  S
C594        F598   1.382       .  S
C594        F599   1.378       .  S
C594        F600   1.385       .  S
C601        C602   1.402       .  A
C601        C606   1.390       .  A
C601        H608   1.084       .  S
C602        C603   1.425       .  A
C603        C610   1.520       .  S
C603        C604   1.398       .  A
C604        C605   1.394   1_565  A
C604        H609   1.084       .  S
C605        C606   1.415   1_545  A
C606        C607   1.524   1_565  S
C607        F611   1.385       .  S
C607        F612   1.383       .  S
C607        F613   1.384       .  S
C610        F614   1.378       .  S
C610        F615   1.371       .  S
C610        F616   1.386       .  S
C617        C618   1.399       .  A
C617        C622   1.403       .  A
C617        H624   1.083       .  S
C618        C619   1.408       .  A
C619        C626   1.516       .  S
C619        C620   1.395   1_565  A
C620        C621   1.405   1_545  A
C620        H625   1.082       .  S
C621        C622   1.421       .  A
C622        C623   1.519       .  S
C623        F627   1.385       .  S
C623        F628   1.384       .  S
C623        F629   1.382       .  S
C626        F630   1.379   1_565  S
C626        F631   1.382       .  S
C626        F632   1.385   1_565  S
C633        C634   1.417       .  A
C633        C638   1.400       .  A
C633        H640   1.071       .  S
C634        C635   1.432       .  A
C635        C642   1.527       .  S
C635        C636   1.396       .  A
C636        C637   1.393       .  A
C636        H641   1.083       .  S
C637        C638   1.403       .  A
C638        C639   1.520       .  S
C639        F643   1.385       .  S
C639        F644   1.384       .  S
C639        F645   1.382       .  S
C642        F646   1.379       .  S
C642        F647   1.383       .  S
C642        F648   1.386       .  S
C649        C650   1.401       .  A
C649        C654   1.388       .  A
C649        H656   1.085       .  S
C650        C651   1.413       .  A
C651        C658   1.518       .  S
C651        C652   1.398       .  A
C652        C653   1.399       .  A
C652        H657   1.082       .  S
C653        C654   1.412       .  A
C654        C655   1.519       .  S
C655        F659   1.384       .  S
C655        F660   1.383       .  S
C655        F661   1.379       .  S
C658        F662   1.384       .  S
C658        F663   1.382       .  S
C658        F664   1.385       .  S
C665        C666   1.401       .  A
C665        C670   1.396       .  A
C665        H672   1.083       .  S
C666        C667   1.414       .  A
C667        C674   1.517       .  S
C667        C668   1.394       .  A
C668        C669   1.395       .  A
C668        H673   1.085   1_556  S
C669        C670   1.410       .  A
C670        C671   1.520       .  S
C671        F675   1.385       .  S
C671        F676   1.383       .  S
C671        F677   1.383       .  S
C674        F678   1.382       .  S
C674        F679   1.382       .  S
C674        F680   1.385       .  S
C681        C682   1.392       .  A
C681        C686   1.389       .  A
C681        H688   1.086       .  S
C682        C683   1.399       .  A
C683        C690   1.518   1_556  S
C683        C684   1.393       .  A
C684        C685   1.415       .  A
C684        H689   1.080       .  S
C685        C686   1.427       .  A
C686        C687   1.522       .  S
C687        F691   1.383       .  S
C687        F692   1.372       .  S
C687        F693   1.385       .  S
C690        F694   1.383       .  S
C690        F695   1.383       .  S
C690        F696   1.384       .  S
C697        C698   1.414       .  A
C697        C702   1.398       .  A
C697        H704   1.082       .  S
C698        C699   1.431       .  A
C699        C706   1.522       .  S
C699        C700   1.399       .  A
C700        C701   1.394       .  A
C700        H705   1.083       .  S
C701        C702   1.401       .  A
C702        C703   1.517       .  S
C703        F707   1.385       .  S
C703        F708   1.383       .  S
C703        F709   1.383       .  S
C706        F710   1.385       .  S
C706        F711   1.382       .  S
C706        F712   1.374       .  S
C713        C714   1.397       .  A
C713        C718   1.391       .  A
C713        H720   1.086       .  S
C714        C715   1.401       .  A
C715        C722   1.516       .  S
C715        C716   1.396       .  A
C716        C717   1.413       .  A
C716        H721   1.079       .  S
C717        C718   1.425       .  A
C718        C719   1.526       .  S
C719        F723   1.385       .  S
C719        F724   1.383       .  S
C719        F725   1.377       .  S
C722        F726   1.382       .  S
C722        F727   1.383       .  S
C722        F728   1.384       .  S
C729        C730   1.402   1_564  A
C729        C734   1.386   1_565  A
C729        H736   1.084       .  S
C730        C731   1.424       .  A
C731        C738   1.521       .  S
C731        C732   1.402   1_556  A
C732        C733   1.399       .  A
C732        H737   1.083       .  S
C733        C734   1.417       .  A
C734        C735   1.526   1_545  S
C735        F739   1.383       .  S
C735        F740   1.380   1_565  S
C735        F741   1.385       .  S
C738        F742   1.382       .  S
C738        F743   1.384       .  S
C738        F744   1.386       .  S
C745        C746   1.408       .  A
C745        C750   1.396   1_556  A
C745        H752   1.084       .  S
C746        C747   1.414   1_556  A
C747        C754   1.520       .  S
C747        C748   1.399       .  A
C748        C749   1.404       .  A
C748        H753   1.081       .  S
C749        C750   1.408       .  A
C750        C751   1.519   1_554  S
C751        F755   1.382   1_556  S
C751        F756   1.382   1_556  S
C751        F757   1.384       .  S
C754        F758   1.382       .  S
C754        F759   1.384   1_554  S
C754        F760   1.385       .  S
C761        C762   1.406   1_545  A
C761        C766   1.397       .  A
C761        H768   1.082       .  S
C762        C763   1.420       .  A
C763        C770   1.516       .  S
C763        C764   1.401   1_565  A
C764        C765   1.397       .  A
C764        H769   1.084   1_545  S
C765        C766   1.408       .  A
C766        C767   1.515       .  S
C767        F771   1.385       .  S
C767        F772   1.375       .  S
C767        F773   1.382       .  S
C770        F774   1.382       .  S
C770        F775   1.384       .  S
C770        F776   1.385       .  S
C777        C778   1.402       .  A
C777        C782   1.399       .  A
C777        H784   1.084       .  S
C778        C779   1.420       .  A
C779        C786   1.521       .  S
C779        C780   1.399       .  A
C780        C781   1.400       .  A
C780        H785   1.081       .  S
C781        C782   1.417       .  A
C782        C783   1.519       .  S
C783        F787   1.385       .  S
C783        F788   1.376       .  S
C783        F789   1.381       .  S
C786        F790   1.383       .  S
C786        F791   1.383       .  S
C786        F792   1.385       .  S
C793        C794   1.400   1_554  A
C793        C798   1.399       .  A
C793        H800   1.083       .  S
C794        C795   1.409       .  A
C795        C802   1.518   1_455  S
C795        C796   1.400   1_556  A
C796        C797   1.404       .  A
C796        H801   1.084       .  S
C797        C798   1.409       .  A
C798        C799   1.515       .  S
C799        F803   1.384       .  S
C799        F804   1.382       .  S
C799        F805   1.381       .  S
C802        F806   1.383   1_655  S
C802        F807   1.384       .  S
C802        F808   1.385   1_655  S
C809        C810   1.403       .  A
C809        C814   1.405   1_554  A
C809        H816   1.084   1_554  S
C810        C811   1.411       .  A
C811        C818   1.519       .  S
C811        C812   1.399       .  A
C812        C813   1.406       .  A
C812        H817   1.084       .  S
C813        C814   1.419   1_554  A
C814        C815   1.519       .  S
C815        F819   1.385       .  S
C815        F820   1.382       .  S
C815        F821   1.384       .  S
C818        F822   1.382       .  S
C818        F823   1.383       .  S
C818        F824   1.384       .  S
C825        C826   1.399   1_655  A
C825        C830   1.395   1_655  A
C825        H832   1.083       .  S
C826        C827   1.417       .  A
C827        C834   1.519       .  S
C827        C828   1.397       .  A
C828        C829   1.402       .  A
C828        H833   1.084       .  S
C829        C830   1.416       .  A
C830        C831   1.516   1_455  S
C831        F835   1.385       .  S
C831        F836   1.381   1_655  S
C831        F837   1.372       .  S
C834        F838   1.384       .  S
C834        F839   1.382       .  S
C834        F840   1.386       .  S
C841        C842   1.403       .  A
C841        C846   1.390       .  A
C841        H848   1.085       .  S
C842        C843   1.412       .  A
C843        C850   1.515       .  S
C843        C844   1.400       .  A
C844        C845   1.402       .  A
C844        H849   1.084       .  S
C845        C846   1.412       .  A
C846        C847   1.516       .  S
C847        F851   1.383       .  S
C847        F852   1.379       .  S
C847        F853   1.384       .  S
C850        F854   1.382       .  S
C850        F855   1.384       .  S
C850        F856   1.385       .  S
C857        C858   1.395   1_545  A
C857        C862   1.388   1_655  A
C857        H864   1.086       .  S
C858        C859   1.402       .  A
C859        C866   1.518       .  S
C859        C860   1.397   1_665  A
C860        C861   1.414       .  A
C860        H865   1.079       .  S
C861        C862   1.425       .  A
C862        C863   1.525       .  S
C863        F867   1.385   1_455  S
C863        F868   1.377       .  S
C863        F869   1.383       .  S
C866        F870   1.384       .  S
C866        F871   1.382       .  S
C866        F872   1.385       .  S
C873        C874   1.392       .  A
C873        C878   1.393   1_655  A
C873        H880   1.085       .  S
C874        C875   1.408   1_655  A
C875        C882   1.520       .  S
C875        C876   1.391       .  A
C876        C877   1.399       .  A
C876        H881   1.081       .  S
C877        C878   1.423       .  A
C878        C879   1.525       .  S
C879        F883   1.385   1_455  S
C879        F884   1.383       .  S
C879        F885   1.381       .  S
C882        F886   1.383       .  S
C882        F887   1.383   1_455  S
C882        F888   1.385       .  S
C889        C890   1.396   1_545  A
C889        C894   1.390       .  A
C889        H896   1.086       .  S
C890        C891   1.403       .  A
C891        C898   1.516       .  S
C891        C892   1.401   1_565  A
C892        C893   1.408       .  A
C892        H897   1.082       .  S
C893        C894   1.422       .  A
C894        C895   1.525       .  S
C895        F899   1.385       .  S
C895        F900   1.379       .  S
C895        F901   1.383       .  S
C898        F902   1.384       .  S
C898        F903   1.383       .  S
C898        F904   1.384       .  S
C905        C906   1.399       .  A
C905        C910   1.392       .  A
C905        H912   1.083       .  S
C906        C907   1.416       .  A
C907        C914   1.515   1_556  S
C907        C908   1.402   1_556  A
C908        C909   1.399   1_554  A
C908        H913   1.084       .  S
C909        C910   1.419       .  A
C910        C911   1.525   1_565  S
C911        F915   1.385       .  S
C911        F916   1.383       .  S
C911        F917   1.384       .  S
C914        F918   1.379   1_554  S
C914        F919   1.379       .  S
C914        F920   1.385       .  S
C921        C922   1.398       .  A
C921        C926   1.396       .  A
C921        H928   1.080       .  S
C922        C923   1.412       .  A
C923        C930   1.517   1_565  S
C923        C924   1.403   1_565  A
C924        C925   1.405   1_545  A
C924        H929   1.083       .  S
C925        C926   1.419       .  A
C926        C927   1.522   1_655  S
C927        F931   1.385       .  S
C927        F932   1.383       .  S
C927        F933   1.383       .  S
C930        F934   1.381   1_545  S
C930        F935   1.381   1_545  S
C930        F936   1.385       .  S
C937        C938   1.417       .  A
C937        C942   1.399       .  A
C937        H944   1.074       .  S
C938        C939   1.434       .  A
C939        C946   1.528       .  S
C939        C940   1.395       .  A
C940        C941   1.393       .  A
C940        H945   1.086       .  S
C941        C942   1.403       .  A
C942        C943   1.521       .  S
C943        F947   1.385       .  S
C943        F948   1.383       .  S
C943        F949   1.383       .  S
C946        F950   1.383       .  S
C946        F951   1.386       .  S
C946        F952   1.374       .  S
C953        C954   1.397       .  A
C953        C958   1.391       .  A
C953        H960   1.083       .  S
C954        C955   1.410       .  A
C955        C962   1.516   1_655  S
C955        C956   1.400   1_655  A
C956        C957   1.405   1_455  A
C956        H961   1.083       .  S
C957        C958   1.421       .  A
C958        C959   1.524   1_556  S
C959        F963   1.385       .  S
C959        F964   1.383       .  S
C959        F965   1.384       .  S
C962        F966   1.381       .  S
C962        F967   1.380       .  S
C962        F968   1.385       .  S
