geometry optimzed in LAMMPS
_audit_creation_date              2020-11-30 
_audit_creation_method            'lammps2cif' 
_symmetry_space_group_name_H-M    'P1' 
_symmetry_Int_Tables_number       1 
_symmetry_cell_setting            triclinic 
loop_ 
_symmetry_equiv_pos_as_xyz 
  x,y,z 
_cell_length_a                    33.88467309 
_cell_length_b                    35.84555385236263 
_cell_length_c                    34.39192479619167 
_cell_angle_alpha                 88.8560182526985 
_cell_angle_beta                  90.42711097360642 
_cell_angle_gamma                 117.83118681579676 
loop_ 
_atom_site_label 
_atom_site_type_symbol 
_atom_site_fract_x 
_atom_site_fract_y 
_atom_site_fract_z 
_atom_site_charge 
C1          C  0.87715772  0.77447482  0.35371545     0.03400
C2          C  0.83251283  0.75087782  0.34031418    -0.12600
C3          C  0.81921773  0.71356591  0.31890084     0.00900
C4          C  0.85078022  0.70025336  0.31090029    -0.11300
C5          C  0.89400945  0.72104254  0.32560667     0.03400
C6          C  0.90672033  0.75744144  0.34785418    -0.10700
H7          H  0.80893082  0.76243536  0.34474525     0.09000
H8          H  0.84133559  0.67273537  0.29303094     0.06500
H9          H  0.94048466  0.77461571  0.35782902     0.06300
C10         C  0.79203661  0.86279926  0.30424503     0.03400
C11         C  0.77670724  0.82053582  0.31647763    -0.12800
C12         C  0.73796226  0.79982315  0.33961334     0.00900
C13         C  0.71565848  0.82167437  0.35206448    -0.11300
C14         C  0.72948412  0.86318018  0.34070942     0.03400
C15         C  0.76576682  0.88277351  0.31458221    -0.10700
H16         H  0.79581149  0.80481515  0.30918843     0.09000
H17         H  0.68763467  0.80634291  0.37198606     0.06500
H18         H  0.77451219  0.91407519  0.30389082     0.06300
C19         C  0.16942256  0.09601767  0.35241812     0.03400
C20         C  0.19415929  0.07420502  0.34338414    -0.12800
C21         C  0.22798883  0.09004975  0.31487275     0.00900
C22         C  0.24100915  0.12981212  0.29889918    -0.11300
C23         C  0.22067704  0.15396642  0.30978407     0.03400
C24         C  0.18362921  0.13650043  0.33534810    -0.10700
H25         H  0.18566890  0.04383477  0.35674949     0.09000
H26         H  0.26809702  0.14254141  0.27784719     0.06500
H27         H  0.16562104  0.15356108  0.34149434     0.06300
N28         N  0.54528974  0.52567151  0.08103908    -0.36400
N29         N  0.49637062  0.45604263  0.13291389    -0.56900
N30         N  0.43535701  0.41071520  0.06863461    -0.36400
N31         N  0.48295326  0.48228803  0.01744677    -0.56900
C32         C  0.56459183  0.54297163  0.11525966     0.27200
C33         C  0.55606402  0.55770434  0.05503509     0.27200
C34         C  0.41212504  0.38715002  0.09972344     0.27200
C35         C  0.40711672  0.39933096  0.03782267     0.27200
C36         C  0.53174354  0.47792551  0.15630642     0.35800
C37         C  0.47165662  0.41826860  0.15056286     0.35800
C38         C  0.50114996  0.53403720  0.49696308     0.35800
C39         C  0.43998958  0.47625220  0.48845501     0.35800
C40         C  0.58801388  0.58646218  0.11087666    -0.21700
C41         C  0.58258407  0.59577514  0.07291827    -0.21700
C42         C  0.36876783  0.36005163  0.08836939    -0.21700
C43         C  0.36579569  0.36735924  0.04930818    -0.21700
C44         C  0.52945729  0.45402337  0.18913906    -0.22700
C45         C  0.49122429  0.41623462  0.18559771    -0.22700
C46         C  0.48615733  0.53654922  0.45980248    -0.22700
C47         C  0.44731773  0.49995126  0.45447428    -0.22700
C48         C  0.56386179  0.52041215  0.14969451    -0.18100
C49         C  0.54645403  0.55342289  0.01477179    -0.18100
C50         C  0.41804435  0.41616473  0.99936900    -0.18100
C51         C  0.42943332  0.38743928  0.13752767    -0.18100
H52         H  0.60749286  0.60914431  0.13261783     0.14900
H53         H  0.59736701  0.62705942  0.05977755     0.14900
H54         H  0.34209457  0.33685637  0.10622980     0.14900
H55         H  0.33637135  0.35105177  0.03152980     0.14900
H56         H  0.55227072  0.46326999  0.21349865     0.13100
H57         H  0.47875844  0.39049651  0.20672888     0.13100
H58         H  0.50190662  0.56186789  0.43850806     0.13100
H59         H  0.42731818  0.49137573  0.42829959     0.13100
H60         H  0.53083975  0.49390610  0.07433922     0.26400
H61         H  0.46957042  0.43025278  0.06769706     0.26400
C62         C  0.08146189  0.18304324  0.32556516     0.03400
C63         C  0.12773908  0.20769398  0.31819715    -0.12800
C64         C  0.15068514  0.24977166  0.33121940     0.00900
C65         C  0.12654513  0.26844275  0.34684316    -0.11300
C66         C  0.08263052  0.24418948  0.35863896     0.03400
C67         C  0.05972514  0.20180642  0.34697349    -0.10700
H68         H  0.14648530  0.19335264  0.30617984     0.09000
H69         H  0.14418249  0.30106427  0.35578410     0.06500
H70         H  0.02587586  0.18241135  0.35718738     0.06300
C71         C  0.06342451  0.86205376  0.33521053     0.03400
C72         C  0.10892287  0.88424169  0.34692388    -0.12800
C73         C  0.12932770  0.86397916  0.36802771     0.00900
C74         C  0.10468846  0.82137400  0.37749174    -0.11300
C75         C  0.06046915  0.79803372  0.36540125     0.03400
C76         C  0.03984354  0.81836849  0.34410187    -0.10700
H77         H  0.12841401  0.91774728  0.34099022     0.09000
H78         H  0.12028824  0.80604240  0.39453016     0.06500
H79         H  0.00598986  0.80049128  0.33482123     0.06300
C80         C  0.88555204  0.08062559  0.35186201     0.03400
C81         C  0.83845037  0.05604157  0.34514475    -0.12800
C82         C  0.81546202  0.06946283  0.31824727     0.00900
C83         C  0.83849152  0.10921833  0.30109845    -0.11300
C84         C  0.88311517  0.13589614  0.30964152     0.03400
C85         C  0.90723436  0.12142444  0.33419665    -0.10700
H86         H  0.81983067  0.02598463  0.35982237     0.09000
H87         H  0.82112867  0.11988084  0.28064912     0.06500
H88         H  0.94265034  0.14120959  0.33843756     0.06300
N89         N  0.99128165  0.54291730  0.09548571    -0.36400
N90         N  0.95261500  0.46683522  0.14425945    -0.56900
N91         N  0.97688722  0.42495700  0.08494106    -0.36400
N92         N  0.01104230  0.49770503  0.03491978    -0.56900
C93         C  0.97378070  0.55586371  0.12420434     0.27200
C94         C  0.99879709  0.56950886  0.06466398     0.27200
C95         C  0.95022567  0.39177562  0.10790304     0.27200
C96         C  0.98144615  0.40940296  0.05069717     0.27200
C97         C  0.95166058  0.49425582  0.17026155     0.35800
C98         C  0.94420910  0.43099607  0.16434214     0.35800
C99         C  0.03104669  0.53731580  0.02020428     0.35800
C100        C  0.03041044  0.47682160  0.01781754     0.35800
C101        C  0.97261084  0.59257172  0.11207118    -0.21700
C102        C  0.98722685  0.60046853  0.07426667    -0.21700
C103        C  0.93713316  0.35465070  0.08784409    -0.21700
C104        C  0.95590082  0.36584031  0.05139857    -0.21700
C105        C  0.94059677  0.47500465  0.20677433    -0.22700
C106        C  0.93622561  0.43506038  0.20307525    -0.22700
C107        C  0.03166190  0.51267784  0.50037666    -0.22700
C108        C  0.03149818  0.47427727  0.50334126    -0.22700
C109        C  0.95983731  0.53614407  0.16134116    -0.18100
C110        C  0.01770504  0.56790191  0.02863157    -0.18100
C111        C  0.01446916  0.43283084  0.02238812    -0.18100
C112        C  0.94235789  0.39426400  0.14782835    -0.18100
H113        H  0.96193995  0.61177669  0.12831848     0.14900
H114        H  0.99015966  0.62679064  0.05631653     0.14900
H115        H  0.91742932  0.32267211  0.09859117     0.14900
H116        H  0.95365023  0.34416081  0.02898416     0.14900
H117        H  0.93651806  0.48845888  0.23338828     0.13100
H118        H  0.92787866  0.41162587  0.22617367     0.13100
H119        H  0.05398645  0.53943633  0.48261518     0.13100
H120        H  0.05339690  0.46527652  0.48794819     0.13100
H121        H  0.00056258  0.51922218  0.09788978     0.26400
H122        H  0.99730625  0.45527682  0.09468003     0.26400
N123        N  0.40136544  0.96841061  0.09020637    -0.36400
N124        N  0.47077478  0.97668724  0.14493634    -0.56900
N125        N  0.51761075  0.96015091  0.08189316    -0.36400
N126        N  0.44615640  0.94801190  0.02824900    -0.56900
C127        C  0.38234657  0.96996726  0.12421170     0.27200
C128        C  0.36872893  0.95376273  0.06306176     0.27200
C129        C  0.54265364  0.95995504  0.11272389     0.27200
C130        C  0.52893563  0.94368655  0.05139744     0.27200
C131        C  0.44827714  0.99090367  0.16752374     0.35800
C132        C  0.51003900  0.98707867  0.16298439     0.35800
C133        C  0.41335169  0.94997648  0.00715393     0.35800
C134        C  0.47461416  0.94517041  0.00256960     0.35800
C135        C  0.33724332  0.95673189  0.11850461    -0.21700
C136        C  0.32858448  0.94625275  0.08001593    -0.21700
C137        C  0.57046288  0.94340782  0.10166186    -0.21700
C138        C  0.56190181  0.93322878  0.06302791    -0.21700
C139        C  0.47281169  0.00944432  0.20047515    -0.22700
C140        C  0.51194676  0.00705562  0.19760571    -0.22700
C141        C  0.43865699  0.90826388  0.48143118    -0.22700
C142        C  0.47970773  0.90932235  0.48039301    -0.22700
C143        C  0.40518032  0.98607068  0.15952401    -0.18100
C144        C  0.37445076  0.94906198  0.02297248    -0.18100
C145        C  0.51276041  0.94065518  0.01271554    -0.18100
C146        C  0.54344116  0.97714689  0.14972567    -0.18100
H147        H  0.31309903  0.95509065  0.13980249     0.14900
H148        H  0.29643112  0.93498029  0.06599885     0.14900
H149        H  0.59492533  0.93967157  0.11943423     0.14900
H150        H  0.57862248  0.92017913  0.04540644     0.14900
H151        H  0.46345719  0.02318442  0.22414645     0.13100
H152        H  0.53870784  0.01862870  0.21869794     0.13100
H153        H  0.41261527  0.89425143  0.45988038     0.13100
H154        H  0.49159492  0.89635748  0.45788071     0.13100
H155        H  0.43534958  0.98134807  0.08484926     0.26400
H156        H  0.49818447  0.97548611  0.08055030     0.26400
Zr157      Zr  0.00988281  0.04899235  0.38169681     2.17500
O158        O  0.01870294  0.06976476  0.44942752    -0.51100
O159        O  0.04395988  0.11930582  0.35844674    -0.74300
O160        O  0.09446303  0.08464066  0.37080609    -0.81100
O161        O  0.89102062  0.01996422  0.37399686    -0.82800
O162        O  0.11500248  0.03535834  0.38529196    -0.78500
O163        O  0.95476774  0.07912322  0.37533642    -0.90100
O164        O  0.05626173  0.11379996  0.29421676    -0.76000
O165        O  0.05372343  0.03919623  0.33381252    -0.85500
O166        O  0.97358071  0.04427817  0.32098277    -0.85200
O167        O  0.01500079  0.98570896  0.40184740    -0.72000
O168        O  0.94573198  0.98391208  0.38278901    -0.84100
Zr169      Zr  0.95136619  0.90784934  0.29777141     2.26400
Zr170      Zr  0.05843857  0.97682039  0.35131978     2.06300
Zr171      Zr  0.90640562  0.98019902  0.32726985     2.10000
Zr172      Zr  0.01930774  0.03615527  0.27454559     1.78800
O173        O  0.83214147  0.96331905  0.34777148    -0.92900
O174        O  0.09586909  0.06329997  0.25204734    -0.40700
O175        O  0.95354010  0.97292071  0.28512392    -0.77400
O176        O  0.02261813  0.97106439  0.28946826    -0.96100
O177        O  0.98950150  0.91393566  0.35766364    -0.89400
O178        O  0.90692483  0.91651552  0.34702444    -0.92200
C179        C  0.05936759  0.13571745  0.32517712     1.01600
C180        C  0.91175891  0.05970831  0.37011254     1.14500
C181        C  0.12517031  0.07246234  0.37332928     1.05300
O182        O  0.12639506  0.99284228  0.31632526    -0.94400
O183        O  0.06674968  0.92607477  0.31304592    -0.90100
O184        O  0.99850927  0.87178202  0.31476131    -0.83200
C185        C  0.04137904  0.88702946  0.31859370     1.11900
O186        O  0.94754826  0.93975549  0.47362313    -0.96300
Zr187      Zr  0.94455810  0.92118712  0.40531359     1.88900
O188        O  0.90788791  0.83786496  0.32053224    -0.73000
O189        O  0.08267338  0.94641524  0.40408669    -0.52200
O190        O  0.98417343  0.89131995  0.44366106    -0.96900
O191        O  0.86960747  0.89384267  0.43217011    -0.54100
O192        O  0.90799280  0.84344376  0.38647211    -0.73500
C193        C  0.89803631  0.82158462  0.35456431     0.98900
O194        O  0.95354566  0.88862353  0.23071080    -0.62300
O195        O  0.90783481  0.02590416  0.27363102    -0.57100
O196        O  0.86756105  0.87393016  0.28945765    -0.93800
O197        O  0.85251502  0.92839904  0.28534549    -0.92200
O198        O  0.98380856  0.06378600  0.22888247    -0.92600
O199        O  0.02041092  0.02128965  0.20590620    -0.91400
C200        C  0.83937326  0.88908149  0.28975543     1.17700
H201        H  0.97045757  0.06877661  0.31314607     0.33600
H202        H  0.03946064  0.96649566  0.26896138     0.44500
H203        H  0.87762728  0.89407249  0.35270848     0.38000
H204        H  0.03015180  0.99045884  0.42636854     0.34500
H205        H  0.11420660  0.07045953  0.27595267     0.26300
H206        H  0.07600582  0.95682193  0.42831963     0.32200
H207        H  0.98368104  0.86843721  0.42767853     0.38100
H208        H  0.99434296  0.09329106  0.23684490     0.32600
H209        H  0.88958463  0.00682485  0.25289241     0.31500
H210        H  0.82152762  0.97512450  0.32644568     0.33100
H211        H  0.86947927  0.91748770  0.44644572     0.32100
H212        H  0.00584239  0.99010745  0.20486276     0.36100
H213        H  0.94456155  0.85808072  0.23227622     0.28800
H214        H  0.98887761  0.06573845  0.45721509     0.33100
H215        H  0.93681980  0.91292750  0.48865721     0.35900
H216        H  0.89130741  0.04057716  0.28287571     0.28500
H217        H  0.92791601  0.89014157  0.21819461     0.41400
H218        H  0.12291721  0.00555465  0.29165971     0.31500
H219        H  0.09729974  0.03836588  0.24181250     0.39100
H220        H  0.86742948  0.87307041  0.45256446     0.30900
H221        H  0.06127709  0.91596180  0.40394783     0.31000
H222        H  0.03759996  0.10077297  0.44833922     0.31300
C223        C  0.76846058  0.04296767  0.30404854     0.01600
C224        C  0.76098297  0.01713865  0.27131602     0.04400
C225        C  0.72208188  0.00395541  0.24865736    -0.11700
C226        C  0.68936468  0.01572618  0.25847490     0.23700
C227        C  0.69464660  0.03886514  0.29254767    -0.12200
C228        C  0.73433298  0.05309903  0.31481058     0.05100
C229        C  0.65135105  0.00608805  0.23112836     0.27500
C230        C  0.65622920  0.03424948  0.20001828    -0.12900
C231        C  0.62153670  0.02417338  0.17278206     0.05600
C232        C  0.58172777  0.98584685  0.17636660    -0.08900
C233        C  0.57729772  0.95715652  0.20671808     0.06400
C234        C  0.61207421  0.96720295  0.23383094    -0.13200
Br235      Br  0.64826584  0.05273033  0.30713627    -0.05300
Br236      Br  0.80571201  0.00322805  0.25382684     0.00300
Br237      Br  0.62820483  0.06284738  0.13047469     0.00800
Br238      Br  0.60678953  0.92721370  0.27395781    -0.03700
Br239      Br  0.74388925  0.08983330  0.35796539     0.00900
Br240      Br  0.71487899  0.97236667  0.20184046    -0.03000
Br241      Br  0.71112751  0.08610745  0.19410995    -0.03800
Br242      Br  0.52366036  0.90387984  0.21063186     0.00200
C243        C  0.90222217  0.17848878  0.29094619     0.01600
C244        C  0.92911067  0.18791411  0.25736135     0.04400
C245        C  0.93775993  0.22392861  0.23418982    -0.11700
C246        C  0.92075389  0.25143978  0.24522204     0.23700
C247        C  0.89651883  0.24352894  0.28016959    -0.12200
C248        C  0.88605032  0.20660975  0.30221291     0.05100
C249        C  0.92652434  0.28778437  0.21967902     0.27500
C250        C  0.96754564  0.32511243  0.21861337    -0.12900
C251        C  0.97264777  0.35940226  0.19463344     0.05600
C252        C  0.93588821  0.35785502  0.17372798    -0.08900
C253        C  0.89432838  0.32116863  0.17604244     0.06400
C254        C  0.89005019  0.28576740  0.19790493    -0.13200
Br255      Br  0.87710802  0.28324703  0.29750143    -0.05300
Br256      Br  0.95271769  0.15071050  0.24253968     0.00300
Br257      Br  0.03046861  0.40826968  0.18961778     0.00800
Br258      Br  0.83419586  0.23428643  0.19793485    -0.03700
Br259      Br  0.84796938  0.19377882  0.34724762     0.00900
Br260      Br  0.97115785  0.23457951  0.18645929    -0.03000
Br261      Br  0.01626998  0.32975617  0.25106313    -0.03800
Br262      Br  0.84337135  0.31957184  0.14922943     0.00200
C263        C  0.17606941  0.88652121  0.38227928     0.01600
C264        C  0.20963724  0.88023220  0.36400340     0.04400
C265        C  0.25119262  0.89282542  0.38242221    -0.11700
C266        C  0.25974121  0.91284995  0.41861685     0.23700
C267        C  0.22767293  0.92223658  0.43525811    -0.12200
C268        C  0.18535615  0.90753205  0.41806519     0.05100
C269        C  0.29877984  0.91813133  0.44240195     0.27500
C270        C  0.29405447  0.88566010  0.46879867    -0.12900
C271        C  0.32829448  0.89220492  0.49544535     0.05600
C272        C  0.33575357  0.93879124  0.99658019    -0.08900
C273        C  0.32429697  0.97033369  0.98444912     0.06400
C274        C  0.33871993  0.95646111  0.44162132    -0.13200
Br275      Br  0.24099630  0.95279114  0.48328016    -0.05300
Br276      Br  0.19697171  0.85090272  0.31542746     0.00300
Br277      Br  0.32090286  0.84853490  0.53274737     0.00800
Br278      Br  0.26948036  0.00231215  0.94559482    -0.03700
Br279      Br  0.13848016  0.91054799  0.44676265     0.00900
Br280      Br  0.29531573  0.88005133  0.35984514    -0.03000
Br281      Br  0.23988432  0.83257509  0.46904885    -0.03800
Br282      Br  0.36021030  0.02780285  0.00038195     0.00200
C283        C  0.03774294  0.75265180  0.37727119     0.01600
C284        C  0.05576771  0.72667092  0.36409958     0.04400
C285        C  0.04939441  0.69052185  0.38580522    -0.11700
C286        C  0.02091425  0.67749031  0.41837029     0.23700
C287        C  0.99889391  0.70081681  0.42908102    -0.12200
C288        C  0.00862005  0.73915294  0.40959223     0.05100
C289        C  0.01639102  0.64125493  0.44334277     0.27500
C290        C  0.98445895  0.59982600  0.43458949    -0.12900
C291        C  0.97457565  0.56671244  0.46164863     0.05600
C292        C  0.99766685  0.57485664  0.49726294    -0.08900
C293        C  0.04899248  0.63720274  0.99153531     0.06400
C294        C  0.04216073  0.64858357  0.47740545    -0.13200
Br295      Br  0.95843426  0.68191244  0.47283882    -0.05300
Br296      Br  0.09279446  0.74332494  0.31816231     0.00300
Br297      Br  0.92833814  0.51053639  0.45058899     0.00800
Br298      Br  0.08799432  0.72179520  0.95778001    -0.03700
Br299      Br  0.98709375  0.77572528  0.43069252     0.00900
Br300      Br  0.08414654  0.66211733  0.37445460    -0.03000
Br301      Br  0.95497371  0.58850782  0.38534204    -0.03800
Br302      Br  0.10056080  0.65913957  0.02491568     0.00200
C303        C  0.06400272  0.26309513  0.38700631     0.01600
C304        C  0.09015120  0.28658889  0.41875329     0.04400
C305        C  0.07820000  0.31356969  0.43867811    -0.11700
C306        C  0.03437686  0.30818332  0.43552957     0.23700
C307        C  0.00544598  0.27968370  0.40790290    -0.12200
C308        C  0.02246259  0.26198260  0.38075516     0.05100
C309        C  0.01950294  0.33264490  0.46080308     0.27500
C310        C  0.02277471  0.33046353  0.50173996    -0.12900
C311        C  0.01473721  0.35788722  0.52512793     0.05600
C312        C  0.99444582  0.38121349  0.50894845    -0.08900
C313        C  0.98743730  0.38055391  0.46832902     0.06400
C314        C  0.00386381  0.35969408  0.44421830    -0.13200
Br315      Br  0.94270392  0.26376748  0.40742369    -0.05300
Br316      Br  0.14013362  0.28000163  0.43793603     0.00300
Br317      Br  0.06018173  0.38739025  0.07327605     0.00800
Br318      Br  0.00732431  0.37072165  0.38874938    -0.03700
Br319      Br  0.99311649  0.24389048  0.33204890     0.00900
Br320      Br  0.12331033  0.35988767  0.46734953    -0.03000
Br321      Br  0.03661247  0.28904554  0.52643256    -0.03800
Br322      Br  0.95370912  0.40641890  0.44535266     0.00200
C323        C  0.37431678  0.41384687  0.46123709     0.01600
C324        C  0.38611155  0.39315753  0.43273287     0.04400
C325        C  0.35457791  0.36871290  0.40476667    -0.11700
C326        C  0.31069657  0.36326748  0.40617327     0.23700
C327        C  0.29983116  0.38611357  0.43321717    -0.12200
C328        C  0.33173981  0.41168825  0.46043770     0.05100
C329        C  0.27510188  0.33114853  0.38159920     0.27500
C330        C  0.26234128  0.34304931  0.34638874    -0.12900
C331        C  0.22496770  0.31345246  0.32574776     0.05600
C332        C  0.19910117  0.27204254  0.34086110    -0.08900
C333        C  0.21307468  0.25999488  0.37575967     0.06400
C334        C  0.25103440  0.28934630  0.39574737    -0.13200
Br335      Br  0.24106377  0.38188347  0.43329323    -0.05300
Br336      Br  0.44892824  0.36044490  0.95180484     0.00300
Br337      Br  0.20405915  0.33141980  0.28028709     0.00800
Br338      Br  0.26644930  0.27420375  0.44576179    -0.03700
Br339      Br  0.31707515  0.44310882  0.49738235     0.00900
Br340      Br  0.37134845  0.34291716  0.36436742    -0.03000
Br341      Br  0.29268713  0.40150494  0.32967330    -0.03800
Br342      Br  0.17530899  0.20662776  0.40137204     0.00200
C343        C  0.39976443  0.35508931  0.16623452     0.01600
C344        C  0.39344768  0.31334686  0.16522356     0.04400
C345        C  0.36312857  0.28243085  0.19109231    -0.11700
C346        C  0.33834379  0.29305440  0.21730630     0.23700
C347        C  0.34528623  0.33486442  0.21845690    -0.12200
C348        C  0.37616625  0.36594780  0.19339548     0.05100
C349        C  0.30474558  0.26055534  0.24367305     0.27500
C350        C  0.26027849  0.23652782  0.23134405    -0.12900
C351        C  0.22912177  0.20431890  0.25574881     0.05600
C352        C  0.24171930  0.19747666  0.29336003    -0.08900
C353        C  0.28501622  0.22477400  0.30691251     0.06400
C354        C  0.31719566  0.25409949  0.28128024    -0.13200
Br355      Br  0.31152274  0.34925264  0.25378476    -0.05300
Br356      Br  0.42603870  0.29874388  0.12807396     0.00300
Br357      Br  0.17118877  0.16601439  0.23581336     0.00800
Br358      Br  0.37955616  0.28009873  0.29488603    -0.03700
Br359      Br  0.38530307  0.42327311  0.19558728     0.00900
Br360      Br  0.35537073  0.22563138  0.19078997    -0.03000
Br361      Br  0.24374653  0.24475896  0.17933057    -0.03800
Br362      Br  0.30165588  0.21730015  0.35913022     0.00200
C363        C  0.25044098  0.06624413  0.29955215     0.01600
C364        C  0.29015174  0.07070835  0.31709721     0.04400
C365        C  0.31788194  0.05750791  0.29755135    -0.11700
C366        C  0.30566439  0.03908609  0.26065901     0.23700
C367        C  0.26565687  0.03383730  0.24342053    -0.12200
C368        C  0.23876317  0.04824638  0.26227645     0.05100
C369        C  0.33565524  0.02728094  0.23846885     0.27500
C370        C  0.36463776  0.05528454  0.20996871    -0.12900
C371        C  0.38813371  0.04198663  0.18496866     0.05600
C372        C  0.38330367  0.00082291  0.18862503    -0.08900
C373        C  0.35583436  0.97339565  0.21821478     0.06400
C374        C  0.33173854  0.98652876  0.24279894    -0.13200
Br375      Br  0.24945424  0.00935116  0.19247391    -0.05300
Br376      Br  0.30872408  0.09905526  0.36604058     0.00300
Br377      Br  0.42579508  0.07955878  0.14454206     0.00800
Br378      Br  0.29114116  0.94817464  0.28093309    -0.03700
Br379      Br  0.18893281  0.04775442  0.23457034     0.00900
Br380      Br  0.37438178  0.06769486  0.31954714    -0.03000
Br381      Br  0.37025449  0.11117937  0.20397579    -0.03800
Br382      Br  0.34983180  0.91737023  0.22381981     0.00200
C383        C  0.70748535  0.88531748  0.36066490     0.01600
C384        C  0.66349441  0.87622692  0.35035086     0.04400
C385        C  0.63768797  0.88741995  0.37509344    -0.11700
C386        C  0.65580613  0.90852863  0.41007863     0.23700
C387        C  0.69993114  0.91838657  0.42013476    -0.12200
C388        C  0.72500840  0.90556365  0.39633245     0.05100
C389        C  0.62728058  0.91697804  0.43797485     0.27500
C390        C  0.62241477  0.95383828  0.43414015    -0.12900
C391        C  0.57184965  0.96971540  0.96111606     0.05600
C392        C  0.53883423  0.93433297  0.98094914    -0.08900
C393        C  0.57923309  0.89646515  0.49561878     0.06400
C394        C  0.60506647  0.88803253  0.46859946    -0.13200
Br395      Br  0.72464291  0.94673362  0.46828787    -0.05300
Br396      Br  0.63696220  0.84387008  0.30450287     0.00300
Br397      Br  0.57895377  0.02522652  0.97192220     0.00800
Br398      Br  0.61007119  0.83671468  0.47333816    -0.03700
Br399      Br  0.78002967  0.90935894  0.41621033     0.00900
Br400      Br  0.57596226  0.87040035  0.36331450    -0.03000
Br401      Br  0.65343688  0.99377185  0.39319176    -0.03800
Br402      Br  0.54996450  0.85732287  0.53799485     0.00200
C403        C  0.57377843  0.59703017  0.48565582     0.01600
C404        C  0.57828702  0.63815102  0.48508834     0.04400
C405        C  0.60730225  0.66835224  0.45817432    -0.11700
C406        C  0.63095877  0.65708932  0.43132856     0.23700
C407        C  0.62493533  0.61556892  0.43091645    -0.12200
C408        C  0.59761604  0.58594091  0.45886775     0.05100
C409        C  0.66282158  0.68918097  0.40400635     0.27500
C410        C  0.64857567  0.69445833  0.36678306    -0.12900
C411        C  0.67835280  0.72641723  0.34158441     0.05600
C412        C  0.72036348  0.75645010  0.35538069    -0.08900
C413        C  0.73461736  0.75087421  0.39271275     0.06400
C414        C  0.70642432  0.71641733  0.41644261    -0.13200
Br415      Br  0.65249293  0.59891164  0.39097423    -0.05300
Br416      Br  0.54429248  0.65272301  0.52079993     0.00300
Br417      Br  0.65939165  0.73381432  0.29028028     0.00800
Br418      Br  0.72496568  0.70974922  0.46819654    -0.03700
Br419      Br  0.63396594  0.55321991  0.98710976     0.00900
Br420      Br  0.61383760  0.72480951  0.45708315    -0.03000
Br421      Br  0.58617508  0.66312523  0.35378239    -0.03800
Br422      Br  0.78909197  0.79439155  0.41410650     0.00200
C423        C  0.59753664  0.54354135  0.18046706     0.01600
C424        C  0.58735769  0.56439389  0.20995661     0.04400
C425        C  0.62084357  0.59061420  0.23584116    -0.11700
C426        C  0.66494984  0.59693284  0.23232218     0.23700
C427        C  0.67484647  0.57505206  0.20347732    -0.12200
C428        C  0.64118645  0.54827983  0.17781319     0.05100
C429        C  0.70120567  0.62836129  0.25737986     0.27500
C430        C  0.72402522  0.67121851  0.24565568    -0.12900
C431        C  0.76076004  0.70043553  0.26732064     0.05600
C432        C  0.77366073  0.68757998  0.30219489    -0.08900
C433        C  0.74872747  0.64513121  0.31510162     0.06400
C434        C  0.71345214  0.61553820  0.29242836    -0.13200
Br435      Br  0.73492715  0.58310473  0.19823288    -0.05300
Br436      Br  0.52803468  0.55883674  0.21341213     0.00300
Br437      Br  0.79639522  0.75651470  0.24639124     0.00800
Br438      Br  0.68362476  0.55675280  0.30790893    -0.03700
Br439      Br  0.65484998  0.51885970  0.13808438     0.00900
Br440      Br  0.60673626  0.61916624  0.27539937    -0.03000
Br441      Br  0.70623106  0.68914998  0.19839793    -0.03800
Br442      Br  0.76522877  0.62696939  0.36288728     0.00200
C443        C  0.95433722  0.56185894  0.19236821     0.01600
C444        C  0.98877588  0.58213695  0.21962086     0.04400
C445        C  0.98693616  0.61134299  0.24532749    -0.11700
C446        C  0.95172618  0.62176779  0.24296596     0.23700
C447        C  0.91747315  0.60171012  0.21550837    -0.12200
C448        C  0.91780640  0.57060007  0.19142959     0.05100
C449        C  0.94828244  0.65132996  0.27086340     0.27500
C450        C  0.91994060  0.63479825  0.30334288    -0.12900
C451        C  0.91192225  0.66179261  0.32732078     0.05600
C452        C  0.92429507  0.70346248  0.31474532    -0.08900
C453        C  0.95297968  0.72030373  0.28222169     0.06400
C454        C  0.96745638  0.69491161  0.26207009    -0.13200
Br455      Br  0.87069007  0.61787546  0.21032070    -0.05300
Br456      Br  0.03911967  0.57069192  0.22099937     0.00300
Br457      Br  0.87815157  0.64028732  0.37466772     0.00800
Br458      Br  0.00883599  0.71824594  0.21928733    -0.03700
Br459      Br  0.86907409  0.54105237  0.15599668     0.00900
Br460      Br  0.03304300  0.63755715  0.28318142    -0.03000
Br461      Br  0.88484064  0.57444606  0.31020621    -0.03800
Br462      Br  0.96569960  0.77489544  0.26076067     0.00200
C463        C  0.86195337  0.77346343  0.85061852     0.03400
C464        C  0.81587300  0.75129930  0.84085321    -0.12600
C465        C  0.79836288  0.71264469  0.82077521     0.00900
C466        C  0.82717445  0.69675032  0.81027265    -0.11300
C467        C  0.87209978  0.71692789  0.82045377     0.03400
C468        C  0.88891372  0.75431823  0.84192143    -0.10700
H469        H  0.79439174  0.76515698  0.84668529     0.09000
H470        H  0.81457287  0.66853555  0.79289999     0.06500
H471        H  0.92367507  0.77065935  0.84893254     0.06300
C472        C  0.77516676  0.87199537  0.81335736     0.03400
C473        C  0.75943010  0.83029338  0.82752242    -0.12800
C474        C  0.72007228  0.81072867  0.84993626     0.00900
C475        C  0.69538898  0.83193496  0.85714720    -0.11300
C476        C  0.70981456  0.87316445  0.84401401     0.03400
C477        C  0.74903265  0.89288086  0.82119668    -0.10700
H478        H  0.77945658  0.81453386  0.82370461     0.09000
H479        H  0.66602956  0.81706847  0.87564202     0.06500
H480        H  0.76059970  0.92537487  0.81198060     0.06300
C481        C  0.17286709  0.08260710  0.83639696     0.03400
C482        C  0.19738785  0.06005040  0.82976821    -0.12800
C483        C  0.23298731  0.07507298  0.80294590     0.00900
C484        C  0.24603440  0.11399915  0.78434787    -0.11300
C485        C  0.22332000  0.13735470  0.79075535     0.03400
C486        C  0.18669612  0.12163367  0.81665669    -0.10700
H487        H  0.18721629  0.02948105  0.84352473     0.09000
H488        H  0.27348128  0.12575909  0.76372539     0.06500
H489        H  0.16799337  0.13870757  0.82022532     0.06300
N490        N  0.53085919  0.53765314  0.58087641    -0.36400
N491        N  0.47599686  0.46504863  0.63024688    -0.56900
N492        N  0.41603349  0.42704318  0.56425163    -0.36400
N493        N  0.47298561  0.49703907  0.51424188    -0.56900
C494        C  0.55633742  0.54801532  0.61335637     0.27200
C495        C  0.55575705  0.56394563  0.55181239     0.27200
C496        C  0.39997640  0.39435764  0.59005248     0.27200
C497        C  0.39842053  0.41134761  0.52914111     0.27200
C498        C  0.50379143  0.49021131  0.65791014     0.35800
C499        C  0.44266659  0.43192763  0.64901619     0.35800
C500        C  0.51356330  0.51628781  0.99759236     0.35800
C501        C  0.45625064  0.45484312  0.99061543     0.35800
C502        C  0.59746825  0.58231451  0.60502114    -0.21700
C503        C  0.59723024  0.59208298  0.56623083    -0.21700
C504        C  0.37153726  0.35757923  0.57117011    -0.21700
C505        C  0.37043713  0.36832221  0.53281663    -0.21700
C506        C  0.48862470  0.47242654  0.69443287    -0.22700
C507        C  0.44977554  0.43568373  0.68882856    -0.22700
C508        C  0.50596249  0.51071466  0.95795972    -0.22700
C509        C  0.46956513  0.47179983  0.95353756    -0.22700
C510        C  0.54324483  0.52853999  0.65070439    -0.18100
C511        C  0.54198794  0.56430226  0.51282610    -0.18100
C512        C  0.40511369  0.43488883  0.49409953    -0.18100
C513        C  0.40734587  0.39707589  0.63070740    -0.18100
H514        H  0.62502427  0.59869666  0.62473522     0.14900
H515        H  0.62448819  0.61735418  0.55053890     0.14900
H516        H  0.35292037  0.32625121  0.58382697     0.14900
H517        H  0.35098103  0.34685349  0.51024833     0.14900
H518        H  0.50387424  0.48470276  0.72222551     0.13100
H519        H  0.42939050  0.41395510  0.71146851     0.13100
H520        H  0.52429086  0.53268786  0.93469725     0.13100
H521        H  0.45427964  0.45789956  0.92619583     0.13100
H522        H  0.49732061  0.51632177  0.57936700     0.26400
H523        H  0.43325343  0.45867571  0.57120964     0.26400
C524        C  0.08814769  0.18386280  0.82314712     0.03400
C525        C  0.13492858  0.20530451  0.81642301    -0.12800
C526        C  0.16155931  0.24624251  0.83130909     0.00900
C527        C  0.14099489  0.26720621  0.84902357    -0.11300
C528        C  0.09625873  0.24639572  0.85913136     0.03400
C529        C  0.06957562  0.20506894  0.84543057    -0.10700
H530        H  0.15110842  0.18890536  0.80339814     0.09000
H531        H  0.16147017  0.29862681  0.86013578     0.06500
H532        H  0.03527844  0.18819299  0.85473288     0.06300
C533        C  0.03828025  0.85207827  0.81668108     0.03400
C534        C  0.08255253  0.87328241  0.83141533    -0.12800
C535        C  0.09861488  0.85324674  0.85797671     0.00900
C536        C  0.07224888  0.81072340  0.86655117    -0.11300
C537        C  0.02926232  0.78852749  0.85164081     0.03400
C538        C  0.01251614  0.80882128  0.82586619    -0.10700
H539        H  0.10338089  0.90644198  0.82503065     0.09000
H540        H  0.08478063  0.79488829  0.88653231     0.06500
H541        H  0.98021008  0.79143160  0.81297360     0.06300
C542        C  0.90752256  0.09398594  0.86754931     0.03400
C543        C  0.86314352  0.06973004  0.85357621    -0.12800
C544        C  0.84269214  0.08769298  0.82932022     0.00900
C545        C  0.86354574  0.13094362  0.82385092    -0.11300
C546        C  0.90672099  0.15601378  0.83713932     0.03400
C547        C  0.92920058  0.13781523  0.85892360    -0.10700
H548        H  0.84603585  0.03617638  0.85808027     0.09000
H549        H  0.84744961  0.14495876  0.80561879     0.06500
H550        H  0.96315575  0.15718354  0.86799470     0.06300
N551        N  0.94725476  0.51695736  0.59158130    -0.36400
N552        N  0.91057565  0.44645939  0.64740894    -0.56900
N553        N  0.94285120  0.40262430  0.59668326    -0.36400
N554        N  0.97612949  0.47118446  0.54080383    -0.56900
C555        C  0.92563951  0.53019122  0.61612723     0.27200
C556        C  0.95668988  0.54122137  0.55882082     0.27200
C557        C  0.91798338  0.37169895  0.62241333     0.27200
C558        C  0.94899451  0.38399205  0.56509976     0.27200
C559        C  0.90946738  0.47680067  0.66950036     0.35800
C560        C  0.90745543  0.41537343  0.67222653     0.35800
C561        C  0.99748822  0.50984128  0.52409163     0.35800
C562        C  0.99649141  0.44922755  0.52802067     0.35800
C563        C  0.92161478  0.56360046  0.59888139    -0.21700
C564        C  0.94050754  0.57006732  0.56247946    -0.21700
C565        C  0.90810229  0.33284069  0.60699101    -0.21700
C566        C  0.92647232  0.34053257  0.57034038    -0.21700
C567        C  0.90328332  0.46392422  0.70826185    -0.22700
C568        C  0.90211371  0.42504585  0.70999417    -0.22700
C569        C  0.06298511  0.54188740  0.99309653    -0.22700
C570        C  0.06388921  0.50386357  0.99272414    -0.22700
C571        C  0.91452165  0.51621339  0.65520995    -0.18100
C572        C  0.98378220  0.54106338  0.52773322    -0.18100
C573        C  0.97974441  0.40551865  0.53470786    -0.18100
C574        C  0.90995812  0.37863038  0.66117357    -0.18100
H575        H  0.90756564  0.58220932  0.61144311     0.14900
H576        H  0.94385543  0.59458641  0.54185296     0.14900
H577        H  0.89077844  0.30208974  0.62086257     0.14900
H578        H  0.92587447  0.31688636  0.55092395     0.14900
H579        H  0.90083483  0.48114116  0.73283110     0.13100
H580        H  0.89848035  0.40635404  0.73611192     0.13100
H581        H  0.08375499  0.56983563  0.97593728     0.13100
H582        H  0.08543350  0.49661100  0.97482490     0.13100
H583        H  0.96038127  0.49685087  0.59919249     0.26400
H584        H  0.96082375  0.43440037  0.60328820     0.26400
N585        N  0.42562726  0.95948978  0.59264363    -0.36400
N586        N  0.49874856  0.98329421  0.64733593    -0.56900
N587        N  0.54877980  0.96451359  0.58883639    -0.36400
N588        N  0.47725861  0.94355824  0.53351136    -0.56900
C589        C  0.41234034  0.97714158  0.62079224     0.27200
C590        C  0.40131499  0.95692521  0.56042346     0.27200
C591        C  0.58090170  0.98473148  0.61560938     0.27200
C592        C  0.56942193  0.96332188  0.55561201     0.27200
C593        C  0.46743319  0.98289760  0.67176412     0.35800
C594        C  0.53250299  0.98509300  0.66977727     0.35800
C595        C  0.43798801  0.92942177  0.51453331     0.35800
C596        C  0.50279008  0.93124137  0.51279983     0.35800
C597        C  0.37866182  0.98522059  0.60642602    -0.21700
C598        C  0.37177733  0.97255882  0.56838689    -0.21700
C599        C  0.62243887  0.99649953  0.59917683    -0.21700
C600        C  0.61517545  0.98286050  0.56140232    -0.21700
C601        C  0.48151023  0.98486120  0.70994120    -0.22700
C602        C  0.52265454  0.98600879  0.70870555    -0.22700
C603        C  0.42080267  0.94803106  0.96782492    -0.22700
C604        C  0.45955481  0.94487504  0.96492630    -0.22700
C605        C  0.42785181  0.98381794  0.65974991    -0.18100
C606        C  0.40322726  0.93873056  0.52468424    -0.18100
C607        C  0.54791733  0.94267748  0.52104895    -0.18100
C608        C  0.57357170  0.98952715  0.65536801    -0.18100
H609        H  0.36058522  0.99855328  0.62179763     0.14900
H610        H  0.34740388  0.97429265  0.54893420     0.14900
H611        H  0.65464984  0.01252216  0.61320067     0.14900
H612        H  0.64067964  0.98647702  0.54069834     0.14900
H613        H  0.46418110  0.98584371  0.73589976     0.13100
H614        H  0.54337510  0.98820047  0.73355178     0.13100
H615        H  0.39992635  0.94789676  0.94379197     0.13100
H616        H  0.47454317  0.94205224  0.93820357     0.13100
H617        H  0.44646269  0.94577034  0.59643691     0.26400
H618        H  0.51476772  0.94783710  0.59447216     0.26400
Zr619      Zr  0.02018999  0.04861429  0.87841590     2.17500
O620        O  0.04306990  0.06722158  0.94546813    -0.51100
O621        O  0.05395575  0.11971337  0.85629732    -0.74300
O622        O  0.10185851  0.07755107  0.85956667    -0.81100
O623        O  0.90883175  0.03150549  0.88951829    -0.82800
O624        O  0.11457463  0.02208013  0.86558653    -0.78500
O625        O  0.97483400  0.08754836  0.88452617    -0.90100
O626        O  0.05187366  0.11437470  0.79022109    -0.76000
O627        O  0.05150420  0.03596594  0.82218935    -0.85500
O628        O  0.97270239  0.04492107  0.82510487    -0.85200
O629        O  0.01920733  0.98097982  0.89042807    -0.72000
O630        O  0.94843727  0.98750259  0.89196732    -0.84100
Zr631      Zr  0.93247577  0.90688092  0.79312987     2.26400
Zr632      Zr  0.05097389  0.96990261  0.83257073     2.06300
Zr633      Zr  0.90236952  0.98517494  0.83789656     2.10000
Zr634      Zr  0.00756661  0.03670473  0.76996787     1.78800
O635        O  0.83515159  0.96410932  0.87602836    -0.92900
O636        O  0.07770311  0.05585813  0.73635866    -0.40700
O637        O  0.93522683  0.97483663  0.78095373    -0.77400
O638        O  0.00458593  0.96765761  0.77830058    -0.96100
O639        O  0.98032218  0.91082416  0.84563752    -0.89400
O640        O  0.90139124  0.91933273  0.85023322    -0.92200
C641        C  0.06299359  0.13629995  0.82226744     1.01600
C642        C  0.93177710  0.07087798  0.88375486     1.14500
C643        C  0.12847108  0.06074783  0.85704629     1.05300
O644        O  0.11404499  0.99094196  0.78877521    -0.94400
O645        O  0.04504341  0.91582095  0.78959267    -0.90100
O646        O  0.97569948  0.86566170  0.80013451    -0.83200
C647        C  0.01822073  0.87791020  0.79868032     1.11900
O648        O  0.96248065  0.93692467  0.97030274    -0.96300
Zr649      Zr  0.94702635  0.91946112  0.90177869     1.88900
O650        O  0.88806672  0.83734754  0.81785977    -0.73000
O651        O  0.07760174  0.93501002  0.87963343    -0.52200
O652        O  0.98492550  0.88367930  0.93330192    -0.96900
O653        O  0.87721398  0.89649588  0.93713565    -0.54100
O654        O  0.90334492  0.84218660  0.88280264    -0.73500
C655        C  0.88501019  0.82071052  0.85154086     0.98900
O656        O  0.92070058  0.88533171  0.72561700    -0.62300
O657        O  0.88442974  0.02405810  0.78817305    -0.57100
O658        O  0.84887541  0.88005002  0.79530639    -0.93800
O659        O  0.83846816  0.93718359  0.80224547    -0.92200
O660        O  0.96871827  0.06918272  0.73451032    -0.92600
O661        O  0.99431482  0.02454903  0.70057903    -0.91400
C662        C  0.82321911  0.89743831  0.80098853     1.17700
H663        H  0.97016275  0.07026798  0.81972887     0.33600
H664        H  0.01602011  0.96192254  0.75495996     0.44500
H665        H  0.87214836  0.89794978  0.85806881     0.38000
H666        H  0.03855162  0.98394477  0.91236163     0.34500
H667        H  0.10025952  0.06337287  0.75725298     0.26300
H668        H  0.08491051  0.95165098  0.90366306     0.32200
H669        H  0.96145941  0.86057976  0.94892237     0.38100
H670        H  0.97272364  0.09327784  0.75053457     0.32600
H671        H  0.85269624  0.01641171  0.79238044     0.31500
H672        H  0.81327592  0.96632900  0.85823386     0.33100
H673        H  0.87948585  0.92228638  0.94917516     0.32100
H674        H  0.96852104  0.99597818  0.69908057     0.36100
H675        H  0.93718562  0.86888614  0.72267916     0.28800
H676        H  0.05007861  0.09725212  0.94685716     0.33100
H677        H  0.99534729  0.95361088  0.97209344     0.35900
H678        H  0.90150935  0.05421358  0.79451729     0.28500
H679        H  0.88885542  0.86397912  0.72453094     0.41400
H680        H  0.13125625  0.97716593  0.79953963     0.31500
H681        H  0.07481017  0.02906970  0.72614655     0.39100
H682        H  0.87864382  0.87897279  0.95918289     0.30900
H683        H  0.05089347  0.90831092  0.88656694     0.31000
H684        H  0.07246442  0.06766253  0.94727991     0.31300
C685        C  0.80293404  0.06270120  0.80449292     0.01600
C686        C  0.80742855  0.06693973  0.76337997     0.04400
C687        C  0.76949115  0.05253477  0.73944889    -0.11700
C688        C  0.72668706  0.03251781  0.75602259     0.23700
C689        C  0.72195226  0.02551844  0.79651197    -0.12200
C690        C  0.75989560  0.04106343  0.82086356     0.05100
C691        C  0.68668678  0.02107431  0.73106163     0.27500
C692        C  0.67139103  0.05093094  0.72334214    -0.12900
C693        C  0.63478446  0.04094480  0.69838026     0.05600
C694        C  0.61142189  0.00006275  0.68304991    -0.08900
C695        C  0.62548001  0.96959146  0.69244021     0.06400
C696        C  0.66407619  0.98063111  0.71500522    -0.13200
Br697      Br  0.66284960  0.99642656  0.81766652    -0.05300
Br698      Br  0.86552108  0.09408786  0.73912718     0.00300
Br699      Br  0.61778456  0.08375954  0.68402864     0.00800
Br700      Br  0.68731394  0.94118240  0.72265346    -0.03700
Br701      Br  0.75325472  0.03623841  0.87650098     0.00900
Br702      Br  0.77581700  0.06223745  0.68388665    -0.03000
Br703      Br  0.70110957  0.10569377  0.74680618    -0.03800
Br704      Br  0.59117523  0.91243081  0.67504557     0.00200
C705        C  0.92728236  0.19962132  0.82155146     0.01600
C706        C  0.94733657  0.20717290  0.78444937     0.04400
C707        C  0.94712305  0.23885911  0.75969219    -0.11700
C708        C  0.92771529  0.26376259  0.77234862     0.23700
C709        C  0.91113301  0.25865398  0.81058300    -0.12200
C710        C  0.91066068  0.22647850  0.83501924     0.05100
C711        C  0.92239142  0.29361075  0.74488782     0.27500
C712        C  0.95670177  0.33530117  0.74046867    -0.12900
C713        C  0.95249038  0.36269554  0.71291058     0.05600
C714        C  0.91235964  0.34975985  0.69188643    -0.08900
C715        C  0.87673001  0.30892372  0.69838447     0.06400
C716        C  0.88251901  0.28030348  0.72349673    -0.13200
Br717      Br  0.88617778  0.29389936  0.82831186    -0.05300
Br718      Br  0.97519862  0.17400479  0.76791715     0.00300
Br719      Br  0.00262579  0.41757848  0.70298173     0.00800
Br720      Br  0.83641528  0.22248764  0.72800043    -0.03700
Br721      Br  0.88245501  0.21547024  0.88548705     0.00900
Br722      Br  0.97180740  0.24712897  0.70798949    -0.03000
Br723      Br  0.00931021  0.35507953  0.77243004    -0.03800
Br724      Br  0.82003936  0.29241816  0.67326901     0.00200
C725        C  0.14058456  0.87626412  0.88067760     0.01600
C726        C  0.18264224  0.89465473  0.86215892     0.04400
C727        C  0.22201437  0.90999936  0.88458091    -0.11700
C728        C  0.21951895  0.90613697  0.92542697     0.23700
C729        C  0.17779620  0.88928649  0.94405053    -0.12200
C730        C  0.13854855  0.87503760  0.92190049     0.05100
C731        C  0.26048201  0.91788886  0.94893663     0.27500
C732        C  0.27238776  0.88654746  0.96054315    -0.12900
C733        C  0.30954700  0.89684614  0.98472105     0.05600
C734        C  0.36776630  0.93095889  0.49533113    -0.08900
C735        C  0.37332301  0.96275468  0.46783305     0.06400
C736        C  0.28647651  0.95978872  0.96091966    -0.13200
Br737      Br  0.17460915  0.88452450  0.00012759    -0.05300
Br738      Br  0.18619863  0.89607252  0.80628409     0.00300
Br739      Br  0.32364930  0.85315661  0.00294595     0.00800
Br740      Br  0.34510034  0.00067197  0.40563004    -0.03700
Br741      Br  0.08198195  0.85362797  0.94864358     0.00900
Br742      Br  0.27969420  0.93506456  0.85990198    -0.03000
Br743      Br  0.23728988  0.82929502  0.94361838    -0.03800
Br744      Br  0.42796768  0.01532591  0.46706077     0.00200
C745        C  0.00434857  0.74413489  0.86514548     0.01600
C746        C  0.01851368  0.71591249  0.85060672     0.04400
C747        C  0.01558380  0.68201399  0.87399272    -0.11700
C748        C  0.99797216  0.67607284  0.91190064     0.23700
C749        C  0.97917573  0.70134508  0.92480559    -0.12200
C750        C  0.98257855  0.73552015  0.90157788     0.05100
C751        C  0.00473598  0.64752521  0.93998935     0.27500
C752        C  0.97204313  0.60520481  0.94462478    -0.12900
C753        C  0.97787336  0.57885089  0.97220367     0.05600
C754        C  0.01602219  0.59493570  0.99609168    -0.08900
C755        C  0.03276371  0.61541388  0.50437058     0.06400
C756        C  0.04348789  0.66346099  0.96334323    -0.13200
Br757      Br  0.95348886  0.69187592  0.97624992    -0.05300
Br758      Br  0.05090055  0.73014964  0.80212560     0.00300
Br759      Br  0.93229303  0.52091001  0.97865659     0.00800
Br760      Br  0.09046872  0.70404515  0.48672969    -0.03700
Br761      Br  0.96461023  0.77467267  0.92272163     0.00900
Br762      Br  0.04098338  0.64712658  0.85649471    -0.03000
Br763      Br  0.91791656  0.58377023  0.91508630    -0.03800
Br764      Br  0.06744416  0.62525965  0.55126184     0.00200
C765        C  0.08063179  0.26823041  0.88723878     0.01600
C766        C  0.10403538  0.28377924  0.92255686     0.04400
C767        C  0.09921350  0.31515134  0.94300597    -0.11700
C768        C  0.06417603  0.32462595  0.93351742     0.23700
C769        C  0.03747871  0.30526565  0.90075442    -0.12200
C770        C  0.04957671  0.28180172  0.87559714     0.05100
C771        C  0.05644540  0.35574064  0.95658789     0.27500
C772        C  0.05041242  0.35105042  0.99732975    -0.12900
C773        C  0.04656062  0.38234797  0.01833836     0.05600
C774        C  0.03328662  0.40986586  0.99897321    -0.08900
C775        C  0.03501400  0.41191545  0.95784366     0.06400
C776        C  0.05372566  0.39001785  0.93791064    -0.13200
Br777      Br  0.98495735  0.31129966  0.88937949    -0.05300
Br778      Br  0.14461634  0.26406642  0.94231982     0.00300
Br779      Br  0.03373093  0.36483019  0.57884840     0.00800
Br780      Br  0.07691740  0.40839691  0.88600295    -0.03700
Br781      Br  0.03397982  0.27922601  0.82199041     0.00900
Br782      Br  0.14431373  0.34857265  0.98031426    -0.03000
Br783      Br  0.04168912  0.30017058  0.02457082    -0.03800
Br784      Br  0.00642441  0.43852111  0.92776947     0.00200
C785        C  0.38681722  0.39300385  0.96695425     0.01600
C786        C  0.39593243  0.36655909  0.94288076     0.04400
C787        C  0.36602915  0.34388284  0.91300028    -0.11700
C788        C  0.32532101  0.34544171  0.90835162     0.23700
C789        C  0.31645790  0.37223424  0.93237973    -0.12200
C790        C  0.34776726  0.39695471  0.96055131     0.05100
C791        C  0.28974696  0.31626828  0.88139140     0.27500
C792        C  0.27854453  0.33192274  0.84736840    -0.12900
C793        C  0.23895559  0.30637029  0.82691732     0.05600
C794        C  0.21023581  0.26465834  0.83992216    -0.08900
C795        C  0.22342424  0.24813002  0.87228956     0.06400
C796        C  0.26283462  0.27379038  0.89284405    -0.13200
Br797      Br  0.26006795  0.37320847  0.92845192    -0.05300
Br798      Br  0.44463477  0.39654127  0.43340918     0.00300
Br799      Br  0.22019100  0.33062963  0.78470512     0.00800
Br800      Br  0.27774346  0.25174017  0.93919294    -0.03700
Br801      Br  0.33701412  0.43596080  0.99093191     0.00900
Br802      Br  0.38077541  0.31004766  0.87926650    -0.03000
Br803      Br  0.31600131  0.38942480  0.83030070    -0.03800
Br804      Br  0.18430460  0.19225262  0.89256795     0.00200
C805        C  0.37620415  0.36030581  0.65509233     0.01600
C806        C  0.39002853  0.33149139  0.67025042     0.04400
C807        C  0.35984645  0.29556262  0.69137968    -0.11700
C808        C  0.31557235  0.28816170  0.69753749     0.23700
C809        C  0.30143577  0.31646798  0.68159280    -0.12200
C810        C  0.33164108  0.35240420  0.66035534     0.05100
C811        C  0.28515831  0.25159563  0.72239657     0.27500
C812        C  0.25254356  0.21426010  0.70559515    -0.12900
C813        C  0.22867513  0.17784185  0.72902290     0.05600
C814        C  0.23890363  0.17792832  0.76892702    -0.08900
C815        C  0.27177532  0.21523469  0.78544252     0.06400
C816        C  0.29312205  0.25243608  0.76269042    -0.13200
Br817      Br  0.24073857  0.30598623  0.68869215    -0.05300
Br818      Br  0.44995508  0.34048724  0.66086107     0.00300
Br819      Br  0.18512986  0.12654150  0.70567995     0.00800
Br820      Br  0.33690879  0.30398114  0.78539811    -0.03700
Br821      Br  0.31186958  0.39067491  0.63797519     0.00900
Br822      Br  0.37917433  0.25618343  0.71185594    -0.03000
Br823      Br  0.24379742  0.21186970  0.65000230    -0.03800
Br824      Br  0.29316152  0.21315625  0.83702831     0.00200
C825        C  0.25492451  0.04944246  0.79066330     0.01600
C826        C  0.29204667  0.05147364  0.81120632     0.04400
C827        C  0.31907009  0.03543609  0.79474340    -0.11700
C828        C  0.30928880  0.01739926  0.75749613     0.23700
C829        C  0.27052790  0.01291651  0.73811365    -0.12200
C830        C  0.24367827  0.02905039  0.75447335     0.05100
C831        C  0.34260245  0.00885426  0.73623830     0.27500
C832        C  0.37868451  0.04245251  0.71682557    -0.12900
C833        C  0.40803183  0.03457856  0.69359628     0.05600
C834        C  0.40116951  0.99298757  0.68897413    -0.08900
C835        C  0.36622415  0.95959922  0.70939215     0.06400
C836        C  0.33708506  0.96746455  0.73292230    -0.13200
Br837      Br  0.25613462  0.98748198  0.68756481    -0.05300
Br838      Br  0.30799120  0.07959139  0.86033680     0.00300
Br839      Br  0.45678910  0.08050936  0.66672438     0.00800
Br840      Br  0.28868686  0.92108646  0.75908826    -0.03700
Br841      Br  0.19329904  0.02608590  0.72566157     0.00900
Br842      Br  0.37135384  0.04067698  0.82187539    -0.03000
Br843      Br  0.38647803  0.09916818  0.72040520    -0.03800
Br844      Br  0.35773625  0.90283435  0.70401984     0.00200
C845        C  0.68609891  0.89573615  0.86010055     0.01600
C846        C  0.64516737  0.88952330  0.84378543     0.04400
C847        C  0.61674868  0.90131330  0.86427637    -0.11700
C848        C  0.62872624  0.91905844  0.90158644     0.23700
C849        C  0.67015496  0.92636328  0.91740429    -0.12200
C850        C  0.69824452  0.91421383  0.89713954     0.05100
C851        C  0.59570398  0.92443605  0.92661608     0.27500
C852        C  0.60018980  0.96489465  0.93422543    -0.12900
C853        C  0.59553552  0.96172644  0.46045854     0.05600
C854        C  0.57449547  0.93341686  0.49174447    -0.08900
C855        C  0.53287362  0.89374255  0.97239248     0.06400
C856        C  0.56170271  0.88884085  0.94593115    -0.13200
Br857      Br  0.68658374  0.94950473  0.96879163    -0.05300
Br858      Br  0.62595445  0.86064923  0.79517706     0.00300
Br859      Br  0.58738211  0.01125255  0.45380762     0.00800
Br860      Br  0.55688463  0.83360563  0.93857716    -0.03700
Br861      Br  0.75006725  0.91720361  0.92318238     0.00900
Br862      Br  0.56052375  0.89177135  0.84190428    -0.03000
Br863      Br  0.64680379  0.01464723  0.91049215    -0.03800
Br864      Br  0.48574612  0.84508916  0.99778802     0.00200
C865        C  0.57408562  0.59029479  0.98930540     0.01600
C866        C  0.56045025  0.62115970  0.98095021     0.04400
C867        C  0.58910109  0.65820908  0.96030104    -0.11700
C868        C  0.63118098  0.66414221  0.94761390     0.23700
C869        C  0.64518215  0.63381479  0.95713871    -0.12200
C870        C  0.61628542  0.59647498  0.97706768     0.05100
C871        C  0.65874484  0.70016196  0.92122385     0.27500
C872        C  0.64753276  0.69804361  0.88151805    -0.12900
C873        C  0.66990449  0.73371249  0.85703977     0.05600
C874        C  0.70592263  0.77033168  0.87130123    -0.08900
C875        C  0.71927064  0.77127385  0.91035200     0.06400
C876        C  0.69470382  0.73686239  0.93565059    -0.13200
Br877      Br  0.70468130  0.64441037  0.94450967    -0.05300
Br878      Br  0.50256601  0.61238039  0.99787520     0.00300
Br879      Br  0.64817958  0.73527351  0.80557942     0.00800
Br880      Br  0.70755803  0.74132706  0.99056624    -0.03700
Br881      Br  0.59328083  0.53027233  0.46091195     0.00900
Br882      Br  0.57152768  0.70151168  0.95032128    -0.03000
Br883      Br  0.59959598  0.64688574  0.86183906    -0.03800
Br884      Br  0.76865243  0.82148536  0.92989510     0.00200
C885        C  0.57284248  0.55090210  0.68410043     0.01600
C886        C  0.56491005  0.58005163  0.70498386     0.04400
C887        C  0.59624450  0.60612505  0.73239666    -0.11700
C888        C  0.63711287  0.60501988  0.73783777     0.23700
C889        C  0.64443262  0.57491804  0.71732978    -0.12200
C890        C  0.61168103  0.54700901  0.69170340     0.05100
C891        C  0.67308451  0.63582046  0.76374102     0.27500
C892        C  0.70044880  0.67786817  0.75091442    -0.12900
C893        C  0.73917551  0.70470177  0.77197226     0.05600
C894        C  0.75160173  0.68956775  0.80569941    -0.08900
C895        C  0.72373340  0.64762855  0.81867629     0.06400
C896        C  0.68388244  0.62166309  0.79883305    -0.13200
Br897      Br  0.70051822  0.57353250  0.72223745    -0.05300
Br898      Br  0.51147639  0.58515950  0.69474465     0.00300
Br899      Br  0.77871728  0.76017089  0.75129334     0.00800
Br900      Br  0.64530078  0.56538753  0.81836447    -0.03700
Br901      Br  0.62016320  0.50399013  0.66596484     0.00900
Br902      Br  0.58248440  0.64340037  0.76157951    -0.03000
Br903      Br  0.68706814  0.69760554  0.70247987    -0.03800
Br904      Br  0.74338201  0.62332267  0.86018559     0.00200
C905        C  0.91425219  0.54727345  0.68325640     0.01600
C906        C  0.95337268  0.57204541  0.70433101     0.04400
C907        C  0.95556245  0.60439041  0.72810831    -0.11700
C908        C  0.91857784  0.61208271  0.73154123     0.23700
C909        C  0.87920461  0.58695049  0.71065199    -0.12200
C910        C  0.87699846  0.55455590  0.68668033     0.05100
C911        C  0.91951690  0.64477874  0.75840937     0.27500
C912        C  0.90440692  0.63323960  0.79698313    -0.12900
C913        C  0.89509986  0.66040478  0.81990321     0.05600
C914        C  0.90009590  0.69899593  0.80422863    -0.08900
C915        C  0.91893815  0.71213939  0.76674105     0.06400
C916        C  0.92911618  0.68527175  0.74410351    -0.13200
Br917      Br  0.82839673  0.59729515  0.71468513    -0.05300
Br918      Br  0.00441137  0.56181906  0.70022157     0.00300
Br919      Br  0.86946153  0.64269970  0.87099678     0.00800
Br920      Br  0.95205423  0.70193404  0.69200562    -0.03700
Br921      Br  0.82333389  0.52045229  0.65803431     0.00900
Br922      Br  0.00982408  0.63840466  0.75502048    -0.03000
Br923      Br  0.89141418  0.57789896  0.81629219    -0.03800
Br924      Br  0.92470978  0.76418553  0.74421495     0.00200
loop_ 
_geom_bond_atom_site_label_1 
_geom_bond_atom_site_label_2 
_geom_bond_distance 
_geom_bond_site_symmetry_2 
_ccdc_geom_bond_type 
C1            C2   1.424       .  A
C1            C6   1.413       .  A
C1          C193   1.496       .  S
C2            C3   1.416       .  A
C2            H7   1.071       .  S
C3            C4   1.390       .  A
C3          C432   1.499       .  S
C4            C5   1.393       .  A
C4            H8   1.086       .  S
C5            C6   1.408       .  A
C5          C452   1.486       .  S
C6            H9   1.073       .  S
C10          C11   1.409       .  A
C10          C15   1.429       .  A
C10         C200   1.514       .  S
C11          C12   1.411       .  A
C11          H16   1.072       .  S
C12          C13   1.392       .  A
C12         C412   1.474       .  S
C13          C14   1.384       .  A
C13          H17   1.087       .  S
C14          C15   1.413       .  A
C14         C383   1.496       .  S
C15          H18   1.075       .  S
C19          C20   1.427       .  A
C19          C24   1.414       .  A
C19         C181   1.513       .  S
C20          C21   1.409       .  A
C20          H25   1.081       .  S
C21          C22   1.383       .  A
C21         C363   1.488       .  S
C22          C23   1.392       .  A
C22          H26   1.087       .  S
C23          C24   1.415       .  A
C23         C352   1.481       .  S
C24          H27   1.071       .  S
N28          C33   1.351       .  A
N28          C32   1.355       .  A
N28          H60   1.038       .  S
N29          C36   1.354       .  A
N29          C37   1.349       .  A
N30          C35   1.357       .  A
N30          C34   1.354       .  A
N30          H61   1.038       .  S
N31         C500   1.351   1_554  A
N31         C501   1.353   1_554  A
C32          C40   1.386       .  A
C32          C48   1.414       .  A
C33          C49   1.415       .  A
C33          C41   1.389       .  A
C34          C42   1.389       .  A
C34          C51   1.421       .  A
C35          C50   1.420   1_554  A
C35          C43   1.386       .  A
C36          C48   1.413       .  A
C36          C44   1.384       .  A
C37          C51   1.415       .  A
C37          C45   1.388       .  A
C38          C46   1.389       .  A
C38         C511   1.414       .  A
C38         N493   1.348       .  A
C39          C47   1.384       .  A
C39         C512   1.410       .  A
C39         N493   1.351       .  A
C40          C41   1.373       .  A
C40          H52   1.082       .  S
C41          H53   1.082       .  S
C42          C43   1.376       .  A
C42          H54   1.082       .  S
C43          H55   1.082       .  S
C44          C45   1.376       .  A
C44          H56   1.082       .  S
C45          H57   1.082       .  S
C46          C47   1.371       .  A
C46          H58   1.083       .  S
C47          H59   1.082       .  S
C48         C423   1.498       .  S
C49         C500   1.414   1_554  A
C49         C865   1.484   1_554  S
C50         C501   1.415       .  A
C50         C785   1.500       .  S
C51         C343   1.487       .  S
C62          C63   1.417       .  A
C62          C67   1.424       .  A
C62         C179   1.501       .  S
C63          C64   1.417       .  A
C63          H68   1.075       .  S
C64          C65   1.392       .  A
C64         C332   1.489       .  S
C65          C66   1.386       .  A
C65          H69   1.085       .  S
C66          C67   1.411       .  A
C66         C303   1.498       .  S
C67          H70   1.083       .  S
C71          C72   1.425       .  A
C71          C76   1.414       .  A
C71         C185   1.511       .  S
C72          C73   1.405       .  A
C72          H77   1.083       .  S
C73          C74   1.389       .  A
C73         C263   1.487       .  S
C74          C75   1.397       .  A
C74          H78   1.086       .  S
C75          C76   1.415       .  A
C75         C283   1.488       .  S
C76          H79   1.070       .  S
C80          C81   1.438       .  A
C80          C85   1.420       .  A
C80         C180   1.529       .  S
C81          C82   1.420       .  A
C81          H86   1.078       .  S
C82          C83   1.387       .  A
C82         C223   1.507       .  S
C83          C84   1.393       .  A
C83          H87   1.086       .  S
C84          C85   1.421       .  A
C84         C243   1.486       .  S
C85          H88   1.082       .  S
N89          C94   1.354       .  A
N89          C93   1.352       .  A
N89         H121   1.036   1_655  S
N90          C97   1.354       .  A
N90          C98   1.354       .  A
N91          C96   1.353       .  A
N91          C95   1.351       .  A
N91         H122   1.040       .  S
N92          C99   1.345       .  A
N92         C100   1.349       .  A
C93         C101   1.391       .  A
C93         C109   1.420       .  A
C94         C110   1.414   1_655  A
C94         C102   1.385       .  A
C95         C103   1.387       .  A
C95         C112   1.413       .  A
C96         C111   1.418   1_655  A
C96         C104   1.387       .  A
C97         C109   1.421       .  A
C97         C105   1.387       .  A
C98         C112   1.419       .  A
C98         C106   1.385       .  A
C99         C110   1.403       .  A
C99         C569   1.382   1_554  A
C100        C111   1.414       .  A
C100        C570   1.388   1_554  A
C101        C102   1.371       .  A
C101        H113   1.081       .  S
C102        H114   1.082       .  S
C103        C104   1.375       .  A
C103        H115   1.081       .  S
C104        H116   1.082       .  S
C105        C106   1.377       .  A
C105        H117   1.082       .  S
C106        H118   1.082       .  S
C107        C108   1.376       .  A
C107        C561   1.385   1_455  A
C107        H119   1.082       .  S
C108        C562   1.387   1_455  A
C108        H120   1.082       .  S
C109        C443   1.492       .  S
C110        C754   1.484   1_554  S
C111        C774   1.502   1_554  S
C112        C252   1.495       .  S
N123        C128   1.354       .  A
N123        C127   1.354       .  A
N123        H155   1.037       .  S
N124        C131   1.353       .  A
N124        C132   1.352       .  A
N125        C130   1.356       .  A
N125        C129   1.355       .  A
N125        H156   1.036       .  S
N126        C133   1.351       .  A
N126        C134   1.352       .  A
C127        C135   1.386       .  A
C127        C143   1.416       .  A
C128        C144   1.418       .  A
C128        C136   1.388       .  A
C129        C137   1.386       .  A
C129        C146   1.420       .  A
C130        C145   1.422       .  A
C130        C138   1.388       .  A
C131        C143   1.413       .  A
C131        C139   1.385   1_565  A
C132        C146   1.416       .  A
C132        C140   1.387   1_565  A
C133        C144   1.416       .  A
C133        C603   1.387   1_554  A
C134        C145   1.416       .  A
C134        C604   1.386   1_554  A
C135        C136   1.375       .  A
C135        H147   1.082       .  S
C136        H148   1.082       .  S
C137        C138   1.377       .  A
C137        H149   1.082       .  S
C138        H150   1.082       .  S
C139        C140   1.373       .  A
C139        H151   1.082       .  S
C140        H152   1.082       .  S
C141        C142   1.374       .  A
C141        C595   1.387       .  A
C141        H153   1.082       .  S
C142        C596   1.385       .  A
C142        H154   1.082       .  S
C143        C372   1.493   1_565  S
C144        C272   1.491   1_554  S
C145        C392   1.496   1_554  S
C146        C232   1.495       .  S
Zr157       O158   2.433       .  S
Zr157       O159   2.354       .  S
Zr157       O160   2.562       .  S
Zr157       O163   2.563   1_455  S
Zr157       O165   2.364       .  S
Zr157       O166   2.384   1_455  S
Zr157       O167   2.441   1_545  S
Zr157       O168   2.331   1_445  S
O158        H214   0.990   1_455  S
O158        H222   0.990       .  S
O159        C179   1.274       .  A
O160        C181   1.305       .  A
O161       Zr171   2.384   1_545  S
O161        C180   1.265       .  A
O162       Zr170   2.398   1_545  S
O162        C181   1.269       .  A
O163        C180   1.302       .  A
O164       Zr172   2.565       .  S
O164        C179   1.310       .  A
O165       Zr170   2.380   1_545  S
O165       Zr172   2.320       .  S
O166       Zr171   2.368   1_545  S
O166       Zr172   2.348   1_655  S
O166        H201   0.965       .  S
O167       Zr170   2.405       .  S
O167       Zr187   2.429   1_455  S
O167        H204   0.960       .  S
O168       Zr171   2.290       .  S
O168       Zr187   2.346       .  S
Zr169       O194   2.432       .  S
Zr169       O188   2.359       .  S
Zr169       O196   2.530       .  S
Zr169       O184   2.539       .  S
Zr169       O176   2.433   1_655  S
Zr169       O177   2.382       .  S
Zr169       O178   2.394       .  S
Zr169       O175   2.331       .  S
Zr170       O189   2.427       .  S
Zr170       O182   2.421       .  S
Zr170       O183   2.388       .  S
Zr170       O176   2.405       .  S
Zr170       O177   2.378   1_455  S
Zr171       O173   2.405       .  S
Zr171       O195   2.428   1_565  S
Zr171       O197   2.401       .  S
Zr171       O178   2.377       .  S
Zr171       O175   2.271       .  S
Zr172       O198   2.432   1_455  S
Zr172       O199   2.435       .  S
Zr172       O174   2.433       .  S
Zr172       O176   2.432   1_545  S
Zr172       O175   2.345   1_445  S
O173        H210   0.986       .  S
O174        H205   0.990       .  S
O174        H219   0.989       .  S
O176        H202   0.974       .  S
O177       Zr187   2.344       .  S
O178       Zr187   2.334       .  S
O178        H203   0.960       .  S
O182        H218   0.987   1_565  S
O183        C185   1.266       .  A
O184        C185   1.298   1_655  A
O186       Zr187   2.443       .  S
O186        H215   0.990       .  S
Zr187       O190   2.439       .  S
Zr187       O191   2.437       .  S
Zr187       O192   2.561       .  S
O188        C193   1.272       .  A
O189        H206   0.989       .  S
O189        H221   0.989       .  S
O190        H207   0.990       .  S
O191        H211   0.990       .  S
O191        H220   0.990       .  S
O192        C193   1.309       .  A
O194        H213   0.990       .  S
O194        H217   0.990       .  S
O195        H209   0.988       .  S
O195        H216   0.988       .  S
O196        C200   1.301       .  A
O197        C200   1.270       .  A
O198        H208   0.989       .  S
O199        H212   0.990   1_545  S
C223        C224   1.417       .  A
C223        C228   1.418       .  A
C224        C225   1.409       .  A
C224       Br236   1.908       .  S
C225        C226   1.403       .  A
C225       Br240   1.935   1_545  S
C226        C227   1.411       .  A
C226        C229   1.497       .  S
C227        C228   1.419       .  A
C227       Br235   1.929       .  S
C228       Br239   1.927       .  S
C229        C230   1.412       .  A
C229        C234   1.410   1_545  A
C230        C231   1.411       .  A
C230       Br241   1.928       .  S
C231        C232   1.410   1_545  A
C231       Br237   1.929       .  S
C232        C233   1.409       .  A
C233        C234   1.410       .  A
C233       Br242   1.929       .  S
C234       Br238   1.917       .  S
C243        C244   1.411       .  A
C243        C248   1.415       .  A
C244        C245   1.413       .  A
C244       Br256   1.925       .  S
C245        C246   1.413       .  A
C245       Br260   1.929       .  S
C246        C247   1.408       .  A
C246        C249   1.492       .  S
C247        C248   1.406       .  A
C247       Br255   1.931       .  S
C248       Br259   1.929       .  S
C249        C250   1.409       .  A
C249        C254   1.414       .  A
C250        C251   1.409       .  A
C250       Br261   1.929   1_655  S
C251        C252   1.413       .  A
C251       Br257   1.930   1_655  S
C252        C253   1.410       .  A
C253        C254   1.410       .  A
C253       Br262   1.929       .  S
C254       Br258   1.930       .  S
C263        C264   1.413       .  A
C263        C268   1.411       .  A
C264        C265   1.412       .  A
C264       Br276   1.928       .  S
C265        C266   1.409       .  A
C265       Br280   1.928       .  S
C266        C267   1.407       .  A
C266        C269   1.487       .  S
C267        C268   1.406       .  A
C267       Br275   1.931       .  S
C268       Br279   1.923       .  S
C269        C270   1.411       .  A
C269        C274   1.408       .  A
C270        C271   1.407       .  A
C270       Br281   1.931       .  S
C271        C734   1.408       .  A
C271       Br277   1.928       .  S
C272        C273   1.411       .  A
C272        C733   1.410       .  A
C273        C736   1.409       .  A
C273       Br282   1.929   1_566  S
C274        C735   1.408       .  A
C274       Br740   1.923   1_565  S
Br278       C736   1.928   1_545  S
C283        C284   1.413       .  A
C283        C288   1.412       .  A
C284        C285   1.409       .  A
C284       Br296   1.928       .  S
C285        C286   1.406       .  A
C285       Br300   1.928       .  S
C286        C287   1.411   1_455  A
C286        C289   1.490       .  S
C287        C288   1.411   1_655  A
C287       Br295   1.930       .  S
C288       Br299   1.928   1_455  S
C289        C290   1.407   1_455  A
C289        C294   1.410       .  A
C290        C291   1.406       .  A
C290       Br301   1.912       .  S
C291        C292   1.409       .  A
C291       Br297   1.931       .  S
C292        C755   1.408   1_655  A
C292        C572   1.487       .  S
C293        C754   1.407       .  A
C293        C756   1.409       .  A
C293       Br302   1.927   1_556  S
C294        C755   1.408       .  A
C294       Br760   1.927       .  S
Br298       C756   1.931       .  S
C303        C304   1.418       .  A
C303        C308   1.404       .  A
C304        C305   1.402       .  A
C304       Br316   1.926       .  S
C305        C306   1.409       .  A
C305       Br320   1.934       .  S
C306        C307   1.413       .  A
C306        C309   1.493       .  S
C307        C308   1.407       .  A
C307       Br315   1.927   1_455  S
C308       Br319   1.906   1_455  S
C309        C310   1.415       .  A
C309        C314   1.414       .  A
C310        C311   1.404       .  A
C310       Br321   1.934       .  S
C311        C312   1.412   1_455  A
C311       Br779   1.934       .  S
C312        C313   1.414       .  A
C312        C573   1.495       .  S
C313        C314   1.406   1_655  A
C313       Br322   1.933       .  S
C314       Br318   1.934       .  S
Br317       C773   1.933       .  S
C323        C324   1.408       .  A
C323        C328   1.408       .  A
C323        C512   1.489       .  S
C324        C325   1.407       .  A
C324       Br798   1.929       .  S
C325        C326   1.407       .  A
C325       Br340   1.914       .  S
C326        C327   1.410       .  A
C326        C329   1.490       .  S
C327        C328   1.407       .  A
C327       Br335   1.925       .  S
C328       Br339   1.928       .  S
C329        C330   1.407       .  A
C329        C334   1.408       .  A
C330        C331   1.413       .  A
C330       Br341   1.931       .  S
C331        C332   1.415       .  A
C331       Br337   1.931       .  S
C332        C333   1.419       .  A
C333        C334   1.409       .  A
C333       Br342   1.933       .  S
C334       Br338   1.934       .  S
Br336       C786   1.930       .  S
C343        C344   1.410       .  A
C343        C348   1.407       .  A
C344        C345   1.409       .  A
C344       Br356   1.927       .  S
C345        C346   1.410       .  A
C345       Br360   1.928       .  S
C346        C347   1.406       .  A
C346        C349   1.487       .  S
C347        C348   1.402       .  A
C347       Br355   1.910       .  S
C348       Br359   1.933       .  S
C349        C350   1.409       .  A
C349        C354   1.406       .  A
C350        C351   1.410       .  A
C350       Br361   1.929       .  S
C351        C352   1.412       .  A
C351       Br357   1.926       .  S
C352        C353   1.412       .  A
C353        C354   1.406       .  A
C353       Br362   1.929       .  S
C354       Br358   1.928       .  S
C363        C364   1.411       .  A
C363        C368   1.415       .  A
C364        C365   1.413       .  A
C364       Br376   1.928       .  S
C365        C366   1.410       .  A
C365       Br380   1.925       .  S
C366        C367   1.407       .  A
C366        C369   1.490       .  S
C367        C368   1.407       .  A
C367       Br375   1.934       .  S
C368       Br379   1.926       .  S
C369        C370   1.410       .  A
C369        C374   1.409   1_545  A
C370        C371   1.408       .  A
C370       Br381   1.929       .  S
C371        C372   1.410       .  A
C371       Br377   1.929       .  S
C372        C373   1.410   1_545  A
C373        C374   1.410       .  A
C373       Br382   1.928       .  S
C374       Br378   1.921       .  S
C383        C384   1.413       .  A
C383        C388   1.416       .  A
C384        C385   1.415       .  A
C384       Br396   1.928       .  S
C385        C386   1.410       .  A
C385       Br400   1.928       .  S
C386        C387   1.408       .  A
C386        C389   1.498       .  S
C387        C388   1.412       .  A
C387       Br395   1.931       .  S
C388       Br399   1.926       .  S
C389        C390   1.409       .  A
C389        C394   1.411       .  A
C390        C853   1.411       .  A
C390       Br401   1.917       .  S
C391        C392   1.406       .  A
C391        C852   1.408       .  A
C391       Br397   1.933   1_565  S
C392        C855   1.409       .  A
C393        C394   1.411       .  A
C393        C854   1.410       .  A
C393       Br402   1.928       .  S
C394       Br398   1.928       .  S
C403        C404   1.409       .  A
C403        C408   1.409       .  A
C403        C511   1.484       .  S
C404        C405   1.405       .  A
C404       Br416   1.928       .  S
C405        C406   1.409       .  A
C405       Br420   1.930       .  S
C406        C407   1.405       .  A
C406        C409   1.478       .  S
C407        C408   1.401       .  A
C407       Br415   1.920       .  S
C408       Br881   1.931       .  S
C409        C410   1.405       .  A
C409        C414   1.407       .  A
C410        C411   1.406       .  A
C410       Br421   1.929       .  S
C411        C412   1.411       .  A
C411       Br417   1.929       .  S
C412        C413   1.411       .  A
C413        C414   1.405       .  A
C413       Br422   1.928       .  S
C414       Br418   1.930       .  S
Br419       C870   1.930       .  S
C423        C424   1.408       .  A
C423        C428   1.411       .  A
C424        C425   1.409       .  A
C424       Br436   1.930       .  S
C425        C426   1.409       .  A
C425       Br440   1.910       .  S
C426        C427   1.412       .  A
C426        C429   1.501       .  S
C427        C428   1.413       .  A
C427       Br435   1.927       .  S
C428       Br439   1.928       .  S
C429        C430   1.411       .  A
C429        C434   1.409       .  A
C430        C431   1.415       .  A
C430       Br441   1.930       .  S
C431        C432   1.414       .  A
C431       Br437   1.925       .  S
C432        C433   1.416       .  A
C433        C434   1.413       .  A
C433       Br442   1.929       .  S
C434       Br438   1.929       .  S
C443        C444   1.410       .  A
C443        C448   1.412       .  A
C444        C445   1.407       .  A
C444       Br456   1.932   1_655  S
C445        C446   1.408       .  A
C445       Br460   1.915   1_655  S
C446        C447   1.410       .  A
C446        C449   1.488       .  S
C447        C448   1.407       .  A
C447       Br455   1.931       .  S
C448       Br459   1.929       .  S
C449        C450   1.407       .  A
C449        C454   1.411       .  A
C450        C451   1.404       .  A
C450       Br461   1.932       .  S
C451        C452   1.409       .  A
C451       Br457   1.926       .  S
C452        C453   1.415       .  A
C453        C454   1.413       .  A
C453       Br462   1.929       .  S
C454       Br458   1.928   1_655  S
C463        C464   1.424       .  A
C463        C468   1.412       .  A
C463        C655   1.499       .  S
C464        C465   1.419       .  A
C464        H469   1.077       .  S
C465        C466   1.393       .  A
C465        C894   1.498       .  S
C466        C467   1.392       .  A
C466        H470   1.086       .  S
C467        C468   1.409       .  A
C467        C914   1.489       .  S
C468        H471   1.070       .  S
C472        C473   1.410       .  A
C472        C477   1.431       .  A
C472        C662   1.507       .  S
C473        C474   1.409       .  A
C473        H478   1.077       .  S
C474        C475   1.394       .  A
C474        C874   1.477       .  S
C475        C476   1.389       .  A
C475        H479   1.086       .  S
C476        C477   1.413       .  A
C476        C845   1.496       .  S
C477        H480   1.082       .  S
C481        C482   1.426       .  A
C481        C486   1.411       .  A
C481        C643   1.508       .  S
C482        C483   1.409       .  A
C482        H487   1.083       .  S
C483        C484   1.394       .  A
C483        C825   1.494       .  S
C484        C485   1.398       .  A
C484        H488   1.085       .  S
C485        C486   1.412       .  A
C485        C814   1.484       .  S
C486        H489   1.076       .  S
N490        C495   1.353       .  A
N490        C494   1.354       .  A
N490        H522   1.034       .  S
N491        C498   1.354       .  A
N491        C499   1.353       .  A
N492        C497   1.354       .  A
N492        C496   1.352       .  A
N492        H523   1.037       .  S
C494        C502   1.389       .  A
C494        C510   1.420       .  A
C495        C511   1.418       .  A
C495        C503   1.387       .  A
C496        C504   1.388       .  A
C496        C513   1.416       .  A
C497        C512   1.414       .  A
C497        C505   1.386       .  A
C498        C510   1.419       .  A
C498        C506   1.386       .  A
C499        C513   1.419       .  A
C499        C507   1.387       .  A
C500        C508   1.386       .  A
C501        C509   1.386       .  A
C502        C503   1.373       .  A
C502        H514   1.082       .  S
C503        H515   1.082       .  S
C504        C505   1.372       .  A
C504        H516   1.082       .  S
C505        H517   1.082       .  S
C506        C507   1.376       .  A
C506        H518   1.082       .  S
C507        H519   1.082       .  S
C508        C509   1.375       .  A
C508        H520   1.082       .  S
C509        H521   1.082       .  S
C510        C885   1.495       .  S
C513        C805   1.491       .  S
C524        C525   1.420       .  A
C524        C529   1.428       .  A
C524        C641   1.510       .  S
C525        C526   1.420       .  A
C525        H530   1.078       .  S
C526        C527   1.391       .  A
C526        C794   1.493       .  S
C527        C528   1.384       .  A
C527        H531   1.086       .  S
C528        C529   1.416       .  A
C528        C765   1.501       .  S
C529        H532   1.077       .  S
C533        C534   1.423       .  A
C533        C538   1.410       .  A
C533        C647   1.504       .  S
C534        C535   1.406       .  A
C534        H539   1.081       .  S
C535        C536   1.387       .  A
C535        C725   1.492       .  S
C536        C537   1.393       .  A
C536        H540   1.086       .  S
C537        C538   1.410       .  A
C537        C745   1.477       .  S
C538        H541   1.072   1_455  S
C542        C543   1.426       .  A
C542        C547   1.415       .  A
C542        C642   1.511       .  S
C543        C544   1.406       .  A
C543        H548   1.072       .  S
C544        C545   1.380       .  A
C544        C685   1.494       .  S
C545        C546   1.391       .  A
C545        H549   1.087       .  S
C546        C547   1.415       .  A
C546        C705   1.474       .  S
C547        H550   1.077       .  S
N551        C556   1.355       .  A
N551        C555   1.350       .  A
N551        H583   1.037       .  S
N552        C559   1.354       .  A
N552        C560   1.355       .  A
N553        C558   1.353       .  A
N553        C557   1.350       .  A
N553        H584   1.039       .  S
N554        C561   1.346       .  A
N554        C562   1.347       .  A
C555        C563   1.388       .  A
C555        C571   1.416       .  A
C556        C572   1.416       .  A
C556        C564   1.386       .  A
C557        C565   1.387       .  A
C557        C574   1.412       .  A
C558        C573   1.417       .  A
C558        C566   1.387       .  A
C559        C571   1.419       .  A
C559        C567   1.387       .  A
C560        C574   1.418       .  A
C560        C568   1.386       .  A
C561        C572   1.406       .  A
C562        C573   1.410       .  A
C563        C564   1.376       .  A
C563        H575   1.081       .  S
C564        H576   1.082       .  S
C565        C566   1.375       .  A
C565        H577   1.080       .  S
C566        H578   1.082       .  S
C567        C568   1.376       .  A
C567        H579   1.082       .  S
C568        H580   1.082       .  S
C569        C570   1.378       .  A
C569        H581   1.082       .  S
C570        H582   1.082       .  S
C571        C905   1.491       .  S
C574        C714   1.492       .  S
N585        C590   1.355       .  A
N585        C589   1.355       .  A
N585        H617   1.038       .  S
N586        C593   1.353       .  A
N586        C594   1.352       .  A
N587        C592   1.356       .  A
N587        C591   1.354       .  A
N587        H618   1.039       .  S
N588        C595   1.351       .  A
N588        C596   1.352       .  A
C589        C597   1.387       .  A
C589        C605   1.419       .  A
C590        C606   1.419       .  A
C590        C598   1.387       .  A
C591        C599   1.388       .  A
C591        C608   1.420       .  A
C592        C607   1.418       .  A
C592        C600   1.386       .  A
C593        C605   1.415       .  A
C593        C601   1.385       .  A
C594        C608   1.417       .  A
C594        C602   1.387       .  A
C595        C606   1.414       .  A
C596        C607   1.414       .  A
C597        C598   1.376       .  A
C597        H609   1.082       .  S
C598        H610   1.082       .  S
C599        C600   1.377       .  A
C599        H611   1.082   1_565  S
C600        H612   1.082       .  S
C601        C602   1.376       .  A
C601        H613   1.082       .  S
C602        H614   1.082       .  S
C603        C604   1.374       .  A
C603        H615   1.083       .  S
C604        H616   1.082       .  S
C605        C834   1.497       .  S
C606        C734   1.490       .  S
C607        C854   1.498       .  S
C608        C694   1.496   1_565  S
Zr619       O620   2.432       .  S
Zr619       O621   2.366       .  S
Zr619       O622   2.544       .  S
Zr619       O625   2.525   1_455  S
Zr619       O627   2.363       .  S
Zr619       O628   2.395   1_455  S
Zr619       O629   2.436   1_545  S
Zr619       O630   2.435   1_445  S
O620        H676   0.990       .  S
O620        H684   0.990       .  S
O621        C641   1.275       .  A
O622        C643   1.301       .  A
O623       Zr633   2.394   1_545  S
O623        C642   1.266       .  A
O624       Zr632   2.391   1_545  S
O624        C643   1.267       .  A
O625        C642   1.293       .  A
O626       Zr634   2.579       .  S
O626        C641   1.314       .  A
O627       Zr632   2.380   1_545  S
O627       Zr634   2.332       .  S
O628       Zr633   2.382   1_545  S
O628       Zr634   2.336   1_655  S
O628        H663   0.966       .  S
O629       Zr632   2.395       .  S
O629       Zr649   2.437   1_455  S
O629        H666   0.970       .  S
O630       Zr633   2.396       .  S
O630       Zr649   2.434       .  S
Zr631       O656   2.433       .  S
Zr631       O650   2.373       .  S
Zr631       O658   2.532       .  S
Zr631       O646   2.527       .  S
Zr631       O637   2.422       .  S
Zr631       O638   2.445   1_655  S
Zr631       O639   2.380       .  S
Zr631       O640   2.381       .  S
Zr632       O651   2.439       .  S
Zr632       O644   2.430       .  S
Zr632       O645   2.394       .  S
Zr632       O638   2.409       .  S
Zr632       O639   2.380   1_455  S
Zr633       O635   2.424       .  S
Zr633       O657   2.432   1_565  S
Zr633       O659   2.391       .  S
Zr633       O637   2.379       .  S
Zr633       O640   2.375       .  S
Zr634       O660   2.434   1_455  S
Zr634       O661   2.435   1_455  S
Zr634       O636   2.437       .  S
Zr634       O637   2.444   1_445  S
Zr634       O638   2.441   1_545  S
O635        H672   0.988       .  S
O636        H667   0.990       .  S
O636        H681   0.990       .  S
O638        H664   0.960       .  S
O639       Zr649   2.341       .  S
O640       Zr649   2.342       .  S
O640        H665   0.964       .  S
O644        H680   0.990       .  S
O645        C647   1.267       .  A
O646        C647   1.296   1_655  A
O648       Zr649   2.440       .  S
O648        H677   0.990       .  S
Zr649       O652   2.435       .  S
Zr649       O653   2.437       .  S
Zr649       O654   2.553       .  S
O650        C655   1.275       .  A
O651        H668   0.989       .  S
O651        H683   0.989       .  S
O652        H669   0.990       .  S
O653        H673   0.990       .  S
O653        H682   0.990       .  S
O654        C655   1.308       .  A
O656        H675   0.990       .  S
O656        H679   0.990       .  S
O657        H671   0.989       .  S
O657        H678   0.987       .  S
O658        C662   1.302       .  A
O659        C662   1.270       .  A
O660        H670   0.988       .  S
O661        H674   0.990   1_545  S
C685        C686   1.421       .  A
C685        C690   1.409       .  A
C686        C687   1.406       .  A
C686       Br698   1.929       .  S
C687        C688   1.403       .  A
C687       Br702   1.931       .  S
C688        C689   1.407       .  A
C688        C691   1.490       .  S
C689        C690   1.414       .  A
C689       Br697   1.915   1_545  S
C690       Br701   1.923       .  S
C691        C692   1.410       .  A
C691        C696   1.408   1_545  A
C692        C693   1.409       .  A
C692       Br703   1.930       .  S
C693        C694   1.412       .  A
C693       Br699   1.929       .  S
C694        C695   1.412   1_545  A
C695        C696   1.408       .  A
C695       Br704   1.929       .  S
C696       Br700   1.926       .  S
C705        C706   1.411       .  A
C705        C710   1.409       .  A
C706        C707   1.409       .  A
C706       Br718   1.926       .  S
C707        C708   1.410       .  A
C707       Br722   1.928       .  S
C708        C709   1.408       .  A
C708        C711   1.485       .  S
C709        C710   1.407       .  A
C709       Br717   1.928       .  S
C710       Br721   1.931       .  S
C711        C712   1.407       .  A
C711        C716   1.411       .  A
C712        C713   1.405       .  A
C712       Br723   1.926   1_655  S
C713        C714   1.413       .  A
C713       Br719   1.932   1_655  S
C714        C715   1.411       .  A
C715        C716   1.410       .  A
C715       Br724   1.929       .  S
C716       Br720   1.931       .  S
C725        C726   1.411       .  A
C725        C730   1.419       .  A
C726        C727   1.412       .  A
C726       Br738   1.924       .  S
C727        C728   1.408       .  A
C727       Br742   1.924       .  S
C728        C729   1.405       .  A
C728        C731   1.486       .  S
C729        C730   1.406       .  A
C729       Br737   1.932   1_556  S
C730       Br741   1.932       .  S
C731        C732   1.410       .  A
C731        C736   1.409       .  A
C732        C733   1.406       .  A
C732       Br743   1.930       .  S
C733       Br739   1.931   1_556  S
C734        C735   1.410       .  A
C735       Br744   1.929   1_565  S
C745        C746   1.407       .  A
C745        C750   1.412   1_455  A
C746        C747   1.408       .  A
C746       Br758   1.927       .  S
C747        C748   1.408   1_455  A
C747       Br762   1.926       .  S
C748        C749   1.408       .  A
C748        C751   1.486   1_655  S
C749        C750   1.408       .  A
C749       Br757   1.930       .  S
C750       Br761   1.927       .  S
C751        C752   1.406   1_455  A
C751        C756   1.413       .  A
C752        C753   1.402       .  A
C752       Br763   1.917       .  S
C753        C754   1.409   1_655  A
C753       Br759   1.934       .  S
C755       Br764   1.927       .  S
C765        C766   1.419       .  A
C765        C770   1.403       .  A
C766        C767   1.411       .  A
C766       Br778   1.930       .  S
C767        C768   1.413       .  A
C767       Br782   1.934       .  S
C768        C769   1.414       .  A
C768        C771   1.501       .  S
C769        C770   1.407       .  A
C769       Br777   1.927   1_455  S
C770       Br781   1.906       .  S
C771        C772   1.413       .  A
C771        C776   1.416       .  A
C772        C773   1.403   1_556  A
C772       Br783   1.930   1_556  S
C773        C774   1.415   1_554  A
C774        C775   1.415       .  A
C775        C776   1.407       .  A
C775       Br784   1.930       .  S
C776       Br780   1.931       .  S
C785        C786   1.410       .  A
C785        C790   1.410       .  A
C786        C787   1.411       .  A
C787        C788   1.414       .  A
C787       Br802   1.923       .  S
C788        C789   1.414       .  A
C788        C791   1.500       .  S
C789        C790   1.411       .  A
C789       Br797   1.931       .  S
C790       Br801   1.929       .  S
C791        C792   1.412       .  A
C791        C796   1.411       .  A
C792        C793   1.413       .  A
C792       Br803   1.930       .  S
C793        C794   1.416       .  A
C793       Br799   1.929       .  S
C794        C795   1.415       .  A
C795        C796   1.412       .  A
C795       Br804   1.932       .  S
C796       Br800   1.932       .  S
C805        C806   1.409       .  A
C805        C810   1.413       .  A
C806        C807   1.406       .  A
C806       Br818   1.930       .  S
C807        C808   1.413       .  A
C807       Br822   1.932       .  S
C808        C809   1.410       .  A
C808        C811   1.489       .  S
C809        C810   1.408       .  A
C809       Br817   1.927       .  S
C810       Br821   1.932       .  S
C811        C812   1.409       .  A
C811        C816   1.408       .  A
C812        C813   1.410       .  A
C812       Br823   1.930       .  S
C813        C814   1.413       .  A
C813       Br819   1.926       .  S
C814        C815   1.408       .  A
C815        C816   1.407       .  A
C815       Br824   1.925       .  S
C816       Br820   1.925       .  S
C825        C826   1.411       .  A
C825        C830   1.413       .  A
C826        C827   1.415       .  A
C826       Br838   1.926       .  S
C827        C828   1.413       .  A
C827       Br842   1.928       .  S
C828        C829   1.410       .  A
C828        C831   1.499       .  S
C829        C830   1.411       .  A
C829       Br837   1.930   1_545  S
C830       Br841   1.928       .  S
C831        C832   1.413       .  A
C831        C836   1.413   1_545  A
C832        C833   1.411       .  A
C832       Br843   1.930       .  S
C833        C834   1.410   1_545  A
C833       Br839   1.928       .  S
C834        C835   1.408       .  A
C835        C836   1.411       .  A
C835       Br844   1.930       .  S
C836       Br840   1.918       .  S
C845        C846   1.412       .  A
C845        C850   1.415       .  A
C846        C847   1.416       .  A
C846       Br858   1.927       .  S
C847        C848   1.414       .  A
C847       Br862   1.928       .  S
C848        C849   1.409       .  A
C848        C851   1.501       .  S
C849        C850   1.411       .  A
C849       Br857   1.932       .  S
C850       Br861   1.924       .  S
C851        C852   1.415       .  A
C851        C856   1.415       .  A
C852       Br863   1.916   1_565  S
C853        C854   1.410       .  A
C853       Br859   1.929   1_565  S
C855        C856   1.412       .  A
C855       Br864   1.927       .  S
C856       Br860   1.931       .  S
C865        C866   1.408       .  A
C865        C870   1.407       .  A
C866        C867   1.407       .  A
C866       Br878   1.928       .  S
C867        C868   1.411       .  A
C867       Br882   1.929       .  S
C868        C869   1.407       .  A
C868        C871   1.484       .  S
C869        C870   1.403       .  A
C869       Br877   1.921       .  S
C871        C872   1.409       .  A
C871        C876   1.408       .  A
C872        C873   1.407       .  A
C872       Br883   1.926       .  S
C873        C874   1.405       .  A
C873       Br879   1.922       .  S
C874        C875   1.410       .  A
C875        C876   1.407       .  A
C875       Br884   1.926       .  S
C876       Br880   1.928       .  S
C885        C886   1.405       .  A
C885        C890   1.409       .  A
C886        C887   1.408       .  A
C886       Br898   1.932       .  S
C887        C888   1.415       .  A
C887       Br902   1.911       .  S
C888        C889   1.416       .  A
C888        C891   1.505       .  S
C889        C890   1.412       .  A
C889       Br897   1.930       .  S
C890       Br901   1.928       .  S
C891        C892   1.414       .  A
C891        C896   1.411       .  A
C892        C893   1.417       .  A
C892       Br903   1.929       .  S
C893        C894   1.413       .  A
C893       Br899   1.930       .  S
C894        C895   1.416       .  A
C895        C896   1.412       .  A
C895       Br904   1.928       .  S
C896       Br900   1.930       .  S
C905        C906   1.408       .  A
C905        C910   1.409       .  A
C906        C907   1.405       .  A
C906       Br918   1.935   1_655  S
C907        C908   1.409       .  A
C907       Br922   1.911   1_655  S
C908        C909   1.413       .  A
C908        C911   1.495       .  S
C909        C910   1.411       .  A
C909       Br917   1.929       .  S
C910       Br921   1.928       .  S
C911        C912   1.408       .  A
C911        C916   1.410       .  A
C912        C913   1.411       .  A
C912       Br923   1.925       .  S
C913        C914   1.409       .  A
C913       Br919   1.926       .  S
C914        C915   1.414       .  A
C915        C916   1.413       .  A
C915       Br924   1.929       .  S
C916       Br920   1.928       .  S
