geometry optimzed in LAMMPS
_audit_creation_date              2020-11-30 
_audit_creation_method            'lammps2cif' 
_symmetry_space_group_name_H-M    'P1' 
_symmetry_Int_Tables_number       1 
_symmetry_cell_setting            triclinic 
loop_ 
_symmetry_equiv_pos_as_xyz 
  x,y,z 
_cell_length_a                    35.90270841 
_cell_length_b                    35.9131695194294 
_cell_length_c                    67.82209822566134 
_cell_angle_alpha                 91.07202061458237 
_cell_angle_beta                  89.74324670144271 
_cell_angle_gamma                 92.23169042928538 
loop_ 
_atom_site_label 
_atom_site_type_symbol 
_atom_site_fract_x 
_atom_site_fract_y 
_atom_site_fract_z 
_atom_site_charge 
O1          O  0.12700299  0.92753599  0.13387766    -0.70800
O2          O  0.92354790  0.48375397  0.19719330    -0.71100
O3          O  0.95411832  0.43968821  0.16997681    -0.70900
O4          O  0.11257540  0.97121261  0.16496542    -0.70900
O5          O  0.53596278  0.05087888  0.16169424    -0.70900
O6          O  0.42831443  0.51688636  0.16404990    -0.70900
O7          O  0.57842568  0.00854950  0.18418591    -0.70800
O8          O  0.41292959  0.56373938  0.13525732    -0.71000
V9          V  0.93278175  0.48698149  0.16951215     1.35200
V10         V  0.40667886  0.56381225  0.16334869     1.35200
C11         C  0.09608385  0.91958209  0.12536255     0.78400
C12         C  0.42465023  0.57545379  0.20280728     0.78500
C13         C  0.93299001  0.41088131  0.16835109     0.78300
C14         C  0.07840336  0.97672777  0.16696958     0.78300
O15         O  0.03515942  0.20719997  0.14861683    -0.70800
O16         O  0.03435854  0.20518918  0.20449401    -0.71100
O17         O  0.05080223  0.15681021  0.17559349    -0.70900
O18         O  0.01759515  0.25538541  0.17737912    -0.70900
O19         O  0.45600871  0.34333038  0.16671933    -0.70900
O20         O  0.45056176  0.23700725  0.16557252    -0.70900
O21         O  0.44982029  0.29026357  0.19453264    -0.70800
O22         O  0.45600265  0.29068070  0.13837046    -0.71000
V23         V  0.03341254  0.20575808  0.17653496     1.35200
V24         V  0.45414616  0.29031413  0.16644068     1.35200
C25         C  0.00729105  0.19587816  0.13854480     0.78400
C26         C  0.47871842  0.28733894  0.20493821     0.78500
C27         C  0.48057340  0.21981231  0.16419475     0.78300
C28         C  0.48715372  0.36080216  0.16863071     0.78300
O29         O  0.22961608  0.57154671  0.14435652    -0.70800
O30         O  0.20961652  0.57099525  0.19970180    -0.71100
O31         O  0.21154765  0.51950044  0.17092784    -0.70900
O32         O  0.29001484  0.09627029  0.16027837    -0.70900
O33         O  0.25889214  0.04297637  0.15925029    -0.70900
O34         O  0.15223447  0.52663245  0.16652162    -0.70900
O35         O  0.15161663  0.58051334  0.19393637    -0.70800
O36         O  0.17068180  0.57624220  0.13852591    -0.71000
V37         V  0.21850901  0.57168466  0.17199050     1.35200
V38         V  0.16211022  0.57853712  0.16642533     1.35200
C39         C  0.20350674  0.57293159  0.13188054     0.78400
C40         C  0.17703930  0.57534073  0.20635131     0.78500
C41         C  0.17904421  0.50556481  0.16873717     0.78300
C42         C  0.25961410  0.07776184  0.16182025     0.78300
O43         O  0.22556025  0.28488113  0.14443068    -0.70800
O44         O  0.21369172  0.29039601  0.20009008    -0.71100
O45         O  0.22959654  0.23675958  0.17405009    -0.70900
O46         O  0.20911369  0.33831153  0.17021820    -0.70900
O47         O  0.14958592  0.32427356  0.17064387    -0.70900
O48         O  0.17153546  0.22289791  0.16703875    -0.70900
O49         O  0.15649675  0.26908278  0.19716540    -0.70800
O50         O  0.16608368  0.27763188  0.14067270    -0.71000
V51         V  0.21835601  0.28740929  0.17217617     1.35200
V52         V  0.16182212  0.27373407  0.16899470     1.35200
C53         C  0.19814703  0.28226773  0.13276874     0.78400
C54         C  0.18399547  0.27830175  0.20821782     0.78500
C55         C  0.20398273  0.21265024  0.17045346     0.78300
C56         C  0.17589412  0.34840116  0.16973371     0.78300
O57         O  0.43800385  0.51828411  0.35294894    -0.70800
O58         O  0.43574223  0.52666000  0.29668736    -0.71100
O59         O  0.94173890  0.47334180  0.32823766    -0.70900
O60         O  0.38753689  0.50365746  0.32489836    -0.70900
O61         O  0.55847346  0.04912082  0.31155008    -0.70900
O62         O  0.08150113  0.99271873  0.31934918    -0.70900
O63         O  0.61643201  0.06362684  0.28752932    -0.70800
O64         O  0.60213268  0.06012623  0.34329265    -0.71000
V65         V  0.43676082  0.52334713  0.32485298     1.35200
V66         V  0.60969030  0.06096091  0.31539506     1.35200
C67         C  0.42711310  0.54442362  0.36420619     0.78400
C68         C  0.42684195  0.55679679  0.28878999     0.78500
C69         C  0.93161713  0.50654215  0.32831219     0.78300
C70         C  0.36170093  0.52597602  0.32699680     0.78300
O71         O  0.44685595  0.25361981  0.35611147    -0.70800
O72         O  0.45255366  0.25691205  0.29980203    -0.71100
O73         O  0.01536184  0.12401023  0.33694989    -0.70900
O74         O  0.40542079  0.28222761  0.32750630    -0.70900
O75         O  0.43727438  0.33462904  0.33116514    -0.70900
O76         O  0.05767213  0.16827694  0.34148649    -0.70900
O77         O  0.48251326  0.31043536  0.30195423    -0.70800
O78         O  0.48208387  0.30409193  0.35816414    -0.71000
V79         V  0.45009483  0.25629143  0.32799287     1.35200
V80         V  0.48137275  0.30640050  0.33000720     1.35200
C81         C  0.46455359  0.27766987  0.36672663     0.78400
C82         C  0.46874952  0.28416816  0.29122024     0.78500
C83         C  0.04927559  0.13407894  0.33895759     0.78300
C84         C  0.40613430  0.31733366  0.32915808     0.78300
O85         O  0.33374959  0.04358141  0.34454379    -0.70800
O86         O  0.32884815  0.05893216  0.28906691    -0.71100
O87         O  0.28055047  0.06389904  0.31978923    -0.70900
O88         O  0.38118166  0.04022269  0.31413318    -0.70900
O89         O  0.18227099  0.49461613  0.32257466    -0.70900
O90         O  0.08218020  0.52218061  0.32340080    -0.70900
O91         O  0.13568551  0.51966700  0.29564476    -0.70800
O92         O  0.12958478  0.49707560  0.35043822    -0.71000
V93         V  0.33067315  0.05057798  0.31678658     1.35200
V94         V  0.13252320  0.50954494  0.32311216     1.35200
C95         C  0.13793840  0.52155251  0.36357458     0.78400
C96         C  0.14731237  0.55156134  0.29013728     0.78500
C97         C  0.07364768  0.55528868  0.32726422     0.78300
C98         C  0.20743587  0.51860150  0.32704809     0.78300
O99         O  0.24410739  0.21818523  0.35425306    -0.70800
O100        O  0.22986941  0.22952270  0.29819384    -0.71100
O101        O  0.27234044  0.26328362  0.32613553    -0.70900
O102        O  0.20297151  0.18246657  0.32571981    -0.70900
O103        O  0.15796180  0.22028508  0.33092313    -0.70900
O104        O  0.22922679  0.30249190  0.33287565    -0.70900
O105        O  0.18688937  0.26879044  0.30471887    -0.70800
O106        O  0.19890898  0.25505890  0.35959847    -0.71000
V107        V  0.23647853  0.22410520  0.32621930     1.35200
V108        V  0.19405259  0.26084150  0.33195340     1.35200
C109        C  0.22366842  0.23514189  0.36665858     0.78400
C110        C  0.20603671  0.25188283  0.29201263     0.78500
C111        C  0.26309491  0.29631151  0.32921871     0.78300
C112        C  0.16877269  0.18741919  0.32796463     0.78300
N113        N  0.12806336  0.98466692  0.51042584    -0.35700
N114        N  0.53554993  0.00838903  0.50539154    -0.56200
N115        N  0.35706214  0.50942808  0.47563055    -0.35700
N116        N  0.94138109  0.49033466  0.47864842    -0.56200
C117        C  0.11853490  0.99535987  0.52910281     0.27900
C118        C  0.16280794  0.00013083  0.50626130     0.27900
C119        C  0.32030202  0.51796334  0.47856500     0.27900
C120        C  0.36900946  0.52469812  0.45846072     0.27900
C121        C  0.54294533  0.99943670  0.52418292     0.36500
C122        C  0.49911347  0.99833918  0.50169541     0.36500
C123        C  0.97932451  0.49690033  0.48001295     0.36500
C124        C  0.93125154  0.49606961  0.45967354     0.38100
C125        C  0.14707931  0.01838797  0.53671329    -0.20900
C126        C  0.17382816  0.02275207  0.52213749    -0.20900
C127        C  0.30935957  0.53936827  0.46300616    -0.20900
C128        C  0.33943868  0.54281945  0.45023329    -0.20900
C129        C  0.51079151  0.98374412  0.53261753    -0.22000
C130        C  0.48358937  0.98200664  0.51829677    -0.22000
C131        C  0.99194134  0.51080870  0.46213379    -0.22000
C132        C  0.96238172  0.50851022  0.44920116    -0.22000
C133        C  0.57564542  0.01147084  0.53473432    -0.17400
C134        C  0.00144409  0.49265133  0.49772621    -0.17400
C135        C  0.40531711  0.52259441  0.44947602    -0.17300
C136        C  0.29703678  0.50698994  0.49514996    -0.17300
H137        H  0.14822688  0.03155466  0.55117843     0.15600
H138        H  0.19854279  0.04090533  0.52313205     0.15600
H139        H  0.28255091  0.55153552  0.46107245     0.15600
H140        H  0.33972795  0.55797528  0.43658877     0.15600
H141        H  0.50693873  0.97488141  0.54766050     0.13800
H142        H  0.45540202  0.97088881  0.52019929     0.13800
H143        H  0.01920709  0.52278503  0.45869100     0.13800
H144        H  0.96328040  0.51709964  0.43398696     0.13800
H145        H  0.11305380  0.96482149  0.50191847     0.27100
H146        H  0.37266306  0.49118372  0.48367807     0.27100
N147        N  0.42131057  0.24580091  0.51878262    -0.35700
N148        N  0.01495049  0.22211785  0.52185990    -0.56200
N149        N  0.00984449  0.21354225  0.48283661    -0.35700
N150        N  0.42441266  0.24231942  0.47883143    -0.56200
C151        C  0.43257165  0.26740062  0.53435648     0.27900
C152        C  0.38679531  0.25644283  0.51325317     0.27900
C153        C  0.04592965  0.22701840  0.48424037     0.27900
C154        C  0.99486905  0.22613050  0.46621592     0.27900
C155        C  0.00510162  0.21107331  0.54008309     0.36500
C156        C  0.05025000  0.21067557  0.51813507     0.36500
C157        C  0.38809001  0.22967657  0.48066828     0.36500
C158        C  0.43694949  0.23283816  0.46069472     0.36500
C159        C  0.40526783  0.29281583  0.53856372    -0.20900
C160        C  0.37692559  0.28659687  0.52493726    -0.20900
C161        C  0.05386542  0.24916454  0.46816155    -0.20900
C162        C  0.02198775  0.24787926  0.45656930    -0.20900
C163        C  0.03462936  0.19269417  0.54825588    -0.22000
C164        C  0.06292456  0.19204468  0.53430545    -0.22000
C165        C  0.37782067  0.21078217  0.46338058    -0.22000
C166        C  0.40855153  0.21278202  0.45086384    -0.22000
C167        C  0.46347669  0.26016072  0.54669385    -0.17400
C168        C  0.36538242  0.23899441  0.49755239    -0.17400
C169        C  0.46984545  0.24942998  0.45186606    -0.17300
C170        C  0.07017109  0.21884321  0.50020393    -0.17300
H171        H  0.40550361  0.31329747  0.55047926     0.15600
H172        H  0.35165130  0.30192722  0.52402316     0.15600
H173        H  0.07992578  0.26395747  0.46489514     0.15600
H174        H  0.01946297  0.26018177  0.44221287     0.15600
H175        H  0.03588948  0.18139304  0.56291005     0.13800
H176        H  0.08970427  0.17966985  0.53596552     0.13800
H177        H  0.35123686  0.19761366  0.45960899     0.13800
H178        H  0.40924364  0.20241684  0.43578387     0.13800
H179        H  0.43483775  0.22227998  0.51360065     0.27100
H180        H  0.99727385  0.19238230  0.49122784     0.27100
N181        N  0.19492933  0.50708758  0.51560072    -0.35700
N182        N  0.10455588  0.50817220  0.51723649    -0.56200
N183        N  0.10430555  0.49760236  0.47648280    -0.35700
N184        N  0.19402468  0.49921465  0.47542225    -0.56200
C185        C  0.18468950  0.52312690  0.53295172     0.27900
C186        C  0.23106711  0.51848349  0.51146316     0.27900
C187        C  0.06772765  0.48682568  0.48014764     0.27900
C188        C  0.11395827  0.48324558  0.45861025     0.27900
C189        C  0.11711465  0.50010954  0.53548219     0.36500
C190        C  0.06834334  0.49485017  0.51567258     0.36500
C191        C  0.23165819  0.49528303  0.47737194     0.36500
C192        C  0.18478330  0.49013342  0.45657415     0.36500
C193        C  0.21456790  0.54527623  0.53996083    -0.20900
C194        C  0.24340978  0.54276693  0.52638153    -0.20900
C195        C  0.05554602  0.46355900  0.46474893    -0.20900
C196        C  0.08371801  0.46284479  0.45089607    -0.20900
C197        C  0.08913238  0.48053840  0.54547365    -0.22000
C198        C  0.05913214  0.47611401  0.53284356    -0.22000
C199        C  0.24571542  0.48178949  0.45970718    -0.22000
C200        C  0.21664182  0.48016659  0.44642782    -0.22000
C201        C  0.15176357  0.51332360  0.54408597    -0.17400
C202        C  0.25281798  0.50654183  0.49464952    -0.17400
C203        C  0.14828037  0.48930115  0.44816631    -0.17300
C204        C  0.04627319  0.49429839  0.49780977    -0.17300
H205        H  0.21574505  0.56099490  0.55373263     0.15600
H206        H  0.27055659  0.55680330  0.52753369     0.15600
H207        H  0.02919973  0.44800300  0.46366982     0.15600
H208        H  0.08254213  0.44761498  0.43698937     0.15600
H209        H  0.09058997  0.46961210  0.56020433     0.13800
H210        H  0.03429910  0.45906024  0.53571837     0.13800
H211        H  0.27389065  0.47401395  0.45647647     0.13800
H212        H  0.21856322  0.47094457  0.43119957     0.13800
H213        H  0.17928119  0.48571022  0.50856849     0.27100
H214        H  0.12115200  0.51685226  0.48436586     0.27100
N215        N  0.17313862  0.23030430  0.51926408    -0.35700
N216        N  0.17218445  0.21718273  0.47929631    -0.56200
N217        N  0.27907393  0.23143824  0.47000865    -0.35700
N218        N  0.26236805  0.24067702  0.51813841    -0.56200
C219        C  0.13571818  0.23458429  0.51578539     0.27900
C220        C  0.18195657  0.24746237  0.53673578     0.27900
C221        C  0.24961994  0.20766163  0.46558909     0.27900
C222        C  0.30019290  0.21465518  0.48374228     0.27900
C223        C  0.13465137  0.21146741  0.48126148     0.36500
C224        C  0.18201958  0.20943270  0.46044788     0.36500
C225        C  0.25339258  0.24200559  0.53773264     0.36500
C226        C  0.30051513  0.23789848  0.51685648     0.36500
C227        C  0.12130845  0.25506556  0.53131041    -0.20900
C228        C  0.14952242  0.26173855  0.54466674    -0.20900
C229        C  0.25180466  0.17574088  0.47648201    -0.20900
C230        C  0.28383649  0.17971776  0.48750532    -0.20900
C231        C  0.12074482  0.19845471  0.46320527    -0.22000
C232        C  0.15038505  0.19851002  0.44991930    -0.22000
C233        C  0.28586028  0.23925208  0.54860413    -0.22000
C234        C  0.31473643  0.23517829  0.53561573    -0.22000
C235        C  0.11414391  0.22082633  0.49897300    -0.17400
C236        C  0.21752768  0.24869719  0.54658347    -0.17400
C237        C  0.32146461  0.23387117  0.49869571    -0.17300
C238        C  0.21914465  0.21457826  0.45300373    -0.17300
H239        H  0.09330919  0.26471656  0.53300039     0.15600
H240        H  0.14587951  0.27590523  0.55868022     0.15600
H241        H  0.23183202  0.15237993  0.47673092     0.15600
H242        H  0.29196950  0.16092085  0.49887830     0.15600
H243        H  0.09238459  0.19016817  0.45966481     0.13800
H244        H  0.14895022  0.19056108  0.43446091     0.13800
H245        H  0.28893513  0.23950927  0.56444417     0.13800
H246        H  0.34262108  0.22892345  0.53980879     0.13800
H247        H  0.19154088  0.21360755  0.51157723     0.27100
H248        H  0.28221105  0.25909182  0.46559219     0.27100
N249        N  0.03560857  0.99429391  0.97842700    -0.35700
N250        N  0.03808139  0.98976532  0.01908937    -0.56200
N251        N  0.99440747  0.40417944  0.02270992    -0.35700
N252        N  0.99204079  0.39572136  0.98146558    -0.56200
C253        C  0.04230648  0.03123838  0.98343280     0.27900
C254        C  0.05209700  0.98771717  0.96065484     0.27900
C255        C  0.97794579  0.41685250  0.03952260     0.27900
C256        C  0.98888930  0.36607953  0.02158584     0.27900
C257        C  0.04092434  0.02784379  0.01870246     0.36500
C258        C  0.05458004  0.97891352  0.03584369     0.36500
C259        C  0.97553692  0.40090247  0.96377036     0.36500
C260        C  0.98538235  0.35923741  0.98632430     0.36500
C261        C  0.06429225  0.04754489  0.96888979    -0.20900
C262        C  0.06988366  0.02062306  0.95454187    -0.20900
C263        C  0.96183730  0.38643284  0.04919140    -0.20900
C264        C  0.96802663  0.35494618  0.03781456    -0.20900
C265        C  0.06065198  0.04084230  0.03511922    -0.22000
C266        C  0.06880000  0.01018002  0.04600192    -0.22000
C267        C  0.95686147  0.36805781  0.95784550    -0.22000
C268        C  0.96270816  0.34206779  0.97207861    -0.22000
C269        C  0.03305064  0.04963901  0.00181634    -0.17400
C270        C  0.04890693  0.95433105  0.94864267    -0.17400
C271        C  0.99556029  0.34251829  0.00458889    -0.17300
C272        C  0.97881390  0.45450858  0.04722608    -0.17300
H273        H  0.07599213  0.07577297  0.96884199     0.15600
H274        H  0.08563439  0.02487710  0.94107462     0.15600
H275        H  0.94635633  0.38680068  0.06291140     0.15600
H276        H  0.95644486  0.32729869  0.04065841     0.15600
H277        H  0.07065004  0.06907880  0.03833298     0.13800
H278        H  0.08385866  0.01086080  0.05980167     0.13800
H279        H  0.94100097  0.36312691  0.94445322     0.13800
H280        H  0.95065969  0.31398639  0.97215629     0.13800
H281        H  0.01819628  0.97516562  0.98578745     0.27100
H282        H  0.01031802  0.42076930  0.01314715     0.27100
N283        N  0.00111490  0.23967292  0.98519299    -0.35700
N284        N  0.00865923  0.24099773  0.02505475    -0.56200
N285        N  0.02658366  0.15164791  0.02428658    -0.35700
N286        N  0.01732243  0.15118899  0.98442800    -0.56200
C287        C  0.00804797  0.27728506  0.98793976     0.27900
C288        C  0.01332832  0.23019561  0.96692659     0.27900
C289        C  0.01332142  0.16085105  0.04243466     0.27900
C290        C  0.02096279  0.11376816  0.02134120     0.27900
C291        C  0.00946057  0.27910435  0.02355413     0.36500
C292        C  0.01985941  0.23250602  0.04341819     0.36500
C293        C  0.00461651  0.15927143  0.96633673     0.36500
C294        C  0.01622092  0.11322725  0.98586720     0.36500
C295        C  0.02579202  0.29112304  0.97130203    -0.20900
C296        C  0.02789895  0.26209047  0.95792985    -0.20900
C297        C  0.99922686  0.12852234  0.05117924    -0.20900
C298        C  0.00320951  0.09937364  0.03786175    -0.20900
C299        C  0.02356979  0.29456505  0.04098223    -0.22000
C300        C  0.02912893  0.26549972  0.05356903    -0.22000
C301        C  0.99418446  0.12625358  0.95647197    -0.22000
C302        C  0.00030175  0.09756646  0.96894813    -0.22000
C303        C  0.00180238  0.29882079  0.00567788    -0.17400
C304        C  0.00807354  0.19472094  0.95722847    -0.17400
C305        C  0.02619865  0.09318699  0.00306633    -0.17300
C306        C  0.01655143  0.19656825  0.05233759    -0.17300
H307        H  0.03699594  0.31911814  0.96906361     0.15600
H308        H  0.03939774  0.26457406  0.94324212     0.15600
H309        H  0.98645720  0.12621469  0.06561137     0.15600
H310        H  0.99242908  0.07114390  0.03984231     0.15600
H311        H  0.03109384  0.32344280  0.04418886     0.13800
H312        H  0.03922972  0.26837633  0.06855635     0.13800
H313        H  0.98343316  0.12277156  0.94166411     0.13800
H314        H  0.99261627  0.06865967  0.96588412     0.13800
H315        H  0.98534099  0.22171302  0.99413375     0.27100
H316        H  0.04161911  0.17020495  0.01534525     0.27100
N317        N  0.24811189  0.10121947  0.96896672    -0.35700
N318        N  0.23663881  0.50418061  0.98006754    -0.56200
N319        N  0.23073270  0.51095151  0.02026206    -0.35700
N320        N  0.25266621  0.09627953  0.00893207    -0.56200
C321        C  0.26416173  0.09527701  0.95105264     0.27900
C322        C  0.25350400  0.13832247  0.97429859     0.27900
C323        C  0.23877925  0.47369548  0.01858925     0.27900
C324        C  0.24251693  0.52463535  0.03802787     0.27900
C325        C  0.22198755  0.51466057  0.96278827     0.36500
C326        C  0.22108423  0.46984882  0.98434758     0.36500
C327        C  0.23636960  0.12999902  0.00854960     0.36500
C328        C  0.24498934  0.08103684  0.02658471     0.36500
C329        C  0.27985054  0.12923668  0.94486546    -0.20900
C330        C  0.27316434  0.15602481  0.95934523    -0.20900
C331        C  0.25635238  0.46400278  0.03579400    -0.20900
C332        C  0.25791873  0.49555984  0.04808996    -0.20900
C333        C  0.19698025  0.48675589  0.95602620    -0.22000
C334        C  0.19603900  0.45878415  0.96975085    -0.22000
C335        C  0.21693032  0.13542921  0.02597668    -0.22000
C336        C  0.22341766  0.10510121  0.03761224    -0.22000
C337        C  0.23457398  0.54626419  0.95170442    -0.17400
C338        C  0.24156187  0.15555333  0.99269089    -0.17400
C339        C  0.23446678  0.56068163  0.04648946    -0.17300
C340        C  0.22951842  0.44955085  0.00167636    -0.17300
H341        H  0.29446573  0.13438159  0.93113560     0.15600
H342        H  0.28239613  0.18504629  0.95899934     0.15600
H343        H  0.26697361  0.43714056  0.03925296     0.15600
H344        H  0.26908027  0.49693781  0.06289484     0.15600
H345        H  0.18114970  0.48648081  0.94247765     0.13800
H346        H  0.17884251  0.43336797  0.96909651     0.13800
H347        H  0.20053671  0.15900182  0.03010518     0.13800
H348        H  0.21375496  0.10132685  0.05260912     0.13800
H349        H  0.23135982  0.08129895  0.97616606     0.27100
H350        H  0.21411191  0.52590407  0.01090977     0.27100
N351        N  0.23070552  0.34560309  0.02044344    -0.35700
N352        N  0.22873739  0.25506867  0.01722666    -0.56200
N353        N  0.22924913  0.25825770  0.97696009    -0.35700
N354        N  0.22190291  0.34730001  0.98009662    -0.56200
C355        C  0.21778443  0.33321362  0.03811549     0.27900
C356        C  0.22170972  0.38233313  0.01847512     0.27900
C357        C  0.22364851  0.22052407  0.97905051     0.27900
C358        C  0.21256380  0.26813134  0.96009524     0.27900
C359        C  0.23660393  0.26496144  0.03622546     0.36500
C360        C  0.24206014  0.22019096  0.01354120     0.36500
C361        C  0.23387912  0.38378018  0.98303605     0.36500
C362        C  0.22775375  0.33807849  0.96082911     0.36500
C363        C  0.20080198  0.36272712  0.04770390    -0.20900
C364        C  0.20291671  0.39321008  0.03536710    -0.20900
C365        C  0.20319023  0.20643927  0.96316674    -0.20900
C366        C  0.19639928  0.23619586  0.95123512    -0.20900
C367        C  0.25494237  0.23598780  0.04477760    -0.22000
C368        C  0.25959271  0.20862780  0.03038490    -0.22000
C369        C  0.24863759  0.39697234  0.96544389    -0.22000
C370        C  0.24360034  0.36879610  0.95141018    -0.22000
C371        C  0.22380325  0.29738430  0.04669435    -0.17400
C372        C  0.22917232  0.40493317  0.00128306    -0.17400
C373        C  0.21581027  0.30385790  0.95107133    -0.17300
C374        C  0.23645244  0.19918232  0.99520899    -0.17300
H375        H  0.18801456  0.36240601  0.06218277     0.15600
H376        H  0.19107312  0.41997332  0.03837814     0.15600
H377        H  0.19373079  0.17782527  0.96049797     0.15600
H378        H  0.18167070  0.23432004  0.93734534     0.15600
H379        H  0.26455392  0.23481890  0.05984074     0.13800
H380        H  0.27415970  0.18316493  0.03228993     0.13800
H381        H  0.26163519  0.42407926  0.96279329     0.13800
H382        H  0.25132836  0.37056215  0.93600338     0.13800
H383        H  0.24757517  0.33020771  0.01103495     0.27100
H384        H  0.24686125  0.27608588  0.98532686     0.27100
O385        O  0.11713457  0.96371238  0.85652150    -0.70800
O386        O  0.13026058  0.95853248  0.80006285    -0.71100
O387        O  0.14719728  0.01016937  0.82890735    -0.70900
O388        O  0.92850128  0.35162574  0.82904718    -0.70900
O389        O  0.36439444  0.55749134  0.83460513    -0.70900
O390        O  0.48951110  0.13060485  0.81612169    -0.70900
O391        O  0.48734018  0.07733764  0.78749125    -0.70800
O392        O  0.47917107  0.07896970  0.84400171    -0.71000
V393        V  0.12332296  0.96204696  0.82824020     1.35200
V394        V  0.48422671  0.07839661  0.81578840     1.35200
C395        C  0.08705222  0.97499456  0.86418296     0.78400
C396        C  0.51877127  0.07340130  0.77924266     0.78500
C397        C  0.12728765  0.03797164  0.82700715     0.78300
C398        C  0.89402077  0.35323256  0.83241739     0.78300
O399        O  0.02520855  0.22015022  0.86291175    -0.70800
O400        O  0.02066757  0.22535003  0.80724758    -0.71100
O401        O  0.97860165  0.24922539  0.83764899    -0.70900
O402        O  0.06746365  0.19601669  0.83305931    -0.70900
O403        O  0.42799099  0.28044849  0.82750553    -0.70900
O404        O  0.36549586  0.36209642  0.83336876    -0.70900
O405        O  0.39322720  0.32345081  0.80210039    -0.70800
O406        O  0.40170045  0.31847580  0.85836095    -0.71000
V407        V  0.02230782  0.22169272  0.83511626     1.35200
V408        V  0.39784217  0.32202514  0.83027787     1.35200
C409        C  0.00852904  0.19391436  0.87190547     0.78400
C410        C  0.41554173  0.34397963  0.79208436     0.78500
C411        C  0.37916578  0.39457986  0.83603423     0.78300
C412        C  0.46259989  0.28561767  0.82504872     0.78300
O413        O  0.17682955  0.55902774  0.85952117    -0.70800
O414        O  0.15918200  0.55505028  0.80404345    -0.71100
O415        O  0.12471696  0.52564751  0.83545310    -0.70900
O416        O  0.27032649  0.12903752  0.81263919    -0.70900
O417        O  0.33035016  0.13351216  0.81675996    -0.70900
O418        O  0.15935570  0.47809952  0.83003198    -0.70900
O419        O  0.19824701  0.51086721  0.80134217    -0.70800
O420        O  0.20712072  0.50840139  0.85687392    -0.71000
V421        V  0.16832827  0.55632383  0.83173335     1.35200
V422        V  0.20179554  0.51040931  0.82910898     1.35200
C423        C  0.19533541  0.53433710  0.86779501     0.78400
C424        C  0.17655922  0.53257332  0.79308482     0.78500
C425        C  0.12751625  0.49104882  0.83285766     0.78300
C426        C  0.30019913  0.14876581  0.81311465     0.78300
O427        O  0.16577300  0.28943373  0.85597577    -0.70800
O428        O  0.15895442  0.30213216  0.80011452    -0.71100
O429        O  0.20261368  0.26544978  0.82344084    -0.70900
O430        O  0.12078169  0.32730716  0.83201664    -0.70900
O431        O  0.16006756  0.37424789  0.83661326    -0.70900
O432        O  0.24078061  0.31397209  0.82312894    -0.70900
O433        O  0.19360463  0.35257591  0.80251333    -0.70800
O434        O  0.20801108  0.33433240  0.85739897    -0.71000
V435        V  0.16265386  0.29700536  0.82806591     1.35200
V436        V  0.19968068  0.34303400  0.83001757     1.35200
C437        C  0.18913427  0.30894905  0.86612124     0.78400
C438        C  0.17657936  0.32852480  0.79152867     0.78500
C439        C  0.23483096  0.27954061  0.82019864     0.78300
C440        C  0.12674817  0.36159495  0.83570687     0.78300
O441        O  0.35970190  0.53097467  0.63962842    -0.70800
O442        O  0.35929896  0.54529197  0.69516782    -0.71100
O443        O  0.32441845  0.57541698  0.66501463    -0.70900
O444        O  0.96572421  0.38851044  0.66600952    -0.70900
O445        O  0.16233449  0.96846565  0.66341437    -0.70900
O446        O  0.52909094  0.11162454  0.65437202    -0.70900
O447        O  0.56475778  0.07990586  0.68423179    -0.70800
O448        O  0.56925375  0.07258609  0.62760725    -0.71000
V449        V  0.36037779  0.53918639  0.66731966     1.35200
V450        V  0.56632214  0.07587854  0.65591682     1.35200
C451        C  0.55126162  0.04640720  0.61851051     0.78400
C452        C  0.54258695  0.05863641  0.69394772     0.78500
C453        C  0.49548090  0.10050534  0.65334656     0.78300
C454        C  0.16800333  0.93401961  0.66175476     0.78300
O455        O  0.45697722  0.32357994  0.63975559    -0.70800
O456        O  0.44717619  0.34068628  0.69529231    -0.71100
O457        O  0.04387232  0.21410806  0.67172703    -0.70900
O458        O  0.41381474  0.36563223  0.66309681    -0.70900
O459        O  0.37344908  0.31887441  0.66405833    -0.70900
O460        O  0.01560382  0.15957230  0.67365616    -0.70900
O461        O  0.40614012  0.29497097  0.69690139    -0.70800
O462        O  0.41768442  0.27661344  0.64147304    -0.71000
V463        V  0.45133906  0.33133125  0.66757178     1.35200
V464        V  0.41248748  0.28674561  0.66910642     1.35200
C465        C  0.43968264  0.29660126  0.63104610     0.78400
C466        C  0.42499910  0.32082651  0.70568390     0.78500
C467        C  0.04536931  0.17901310  0.67217477     0.78300
C468        C  0.38058534  0.35330030  0.66204813     0.78300
O469        O  0.31100374  0.06282475  0.62546270    -0.70800
O470        O  0.30430114  0.07674802  0.68113394    -0.71100
O471        O  0.33482579  0.11639341  0.65117500    -0.70900
O472        O  0.28101780  0.02386030  0.65503419    -0.70900
O473        O  0.16237490  0.46574965  0.66989510    -0.70900
O474        O  0.21986166  0.55585578  0.66790080    -0.70900
O475        O  0.19242548  0.51305952  0.69694882    -0.70800
O476        O  0.18927351  0.50897046  0.64060200    -0.71000
V477        V  0.30875543  0.06941925  0.65332242     1.35200
V478        V  0.19011102  0.51161788  0.66884059     1.35200
C479        C  0.33824416  0.04690725  0.61750720     0.78400
C480        C  0.16758263  0.52933384  0.70684303     0.78500
C481        C  0.20484705  0.58704543  0.66775768     0.78300
C482        C  0.12741796  0.46682651  0.67091108     0.78300
O483        O  0.18880676  0.30889688  0.63787315    -0.70800
O484        O  0.17619926  0.32772191  0.69294664    -0.71100
O485        O  0.21338677  0.36325409  0.66286389    -0.70900
O486        O  0.15336262  0.27379310  0.66698059    -0.70900
O487        O  0.20230373  0.24301687  0.67424709    -0.70900
O488        O  0.26208593  0.33073173  0.66810482    -0.70900
O489        O  0.22655067  0.29843336  0.69902289    -0.70800
O490        O  0.23659373  0.27584722  0.64370169    -0.71000
V491        V  0.18389334  0.31794698  0.66544170     1.35200
V492        V  0.23100818  0.28781704  0.67124871     1.35200
C493        C  0.21393761  0.28823924  0.63130949     0.78400
C494        C  0.19877339  0.31589970  0.70545693     0.78500
C495        C  0.24846424  0.36138128  0.66372310     0.78300
C496        C  0.16800370  0.24314590  0.67054554     0.78300
C497        C  0.34993253  0.37797481  0.65891460    -0.04400
C498        C  0.33098551  0.37592260  0.64085207    -0.01500
C499        C  0.29336850  0.38529615  0.64039704     0.03500
C500        C  0.27460540  0.39227714  0.65832576    -0.04400
C501        C  0.29658386  0.40640666  0.67406488    -0.01500
C502        C  0.33416031  0.39673139  0.67511476     0.03500
C503        C  0.34935840  0.36176607  0.62329676     0.38100
C504        C  0.27959355  0.42773386  0.68964155     0.38100
C505        C  0.35517025  0.40211882  0.69320558     0.36500
C506        C  0.27302641  0.38138343  0.62215379     0.36500
N507        N  0.37245881  0.40560222  0.70752804    -0.38300
N508        N  0.25880538  0.37867146  0.60691911    -0.38300
N509        N  0.26681252  0.44590109  0.70197975    -0.37700
N510        N  0.36413928  0.35069441  0.60929358    -0.37700
C511        C  0.14539612  0.20825314  0.66938128    -0.04400
C512        C  0.12810249  0.19753500  0.65134936    -0.01500
C513        C  0.09791904  0.17151357  0.65145513     0.03500
C514        C  0.08169068  0.16256663  0.66966664    -0.04400
C515        C  0.10438135  0.16432803  0.68650312    -0.01500
C516        C  0.13655570  0.18807308  0.68654220     0.03500
C517        C  0.13800755  0.21597889  0.63315811     0.38100
C518        C  0.09133943  0.14663551  0.70437350     0.38100
C519        C  0.15789498  0.19437242  0.70446299     0.36500
C520        C  0.07736187  0.16248200  0.63350041     0.36500
N521        N  0.17485841  0.19915284  0.71882175    -0.38300
N522        N  0.06086486  0.15555602  0.61918799    -0.38300
N523        N  0.08135323  0.13236645  0.71871594    -0.37700
N524        N  0.14424259  0.23041835  0.61834597    -0.37700
C525        C  0.46574580  0.12733452  0.65115578    -0.04400
C526        C  0.28741674  0.64160842  0.68224209    -0.01500
C527        C  0.24970514  0.63028269  0.68413453     0.03500
C528        C  0.39349492  0.15070191  0.64992573    -0.04400
C529        C  0.41326737  0.14768580  0.63215942    -0.01500
C530        C  0.44804588  0.13080287  0.63272056     0.03500
C531        C  0.30959001  0.65062163  0.69956800     0.38100
C532        C  0.39333811  0.15086190  0.61386622     0.38100
C533        C  0.46240459  0.11296406  0.61511513     0.36500
C534        C  0.23398207  0.62308338  0.70348345     0.36500
N535        N  0.47256594  0.09802501  0.60094382    -0.38300
N536        N  0.22185230  0.61718758  0.71899970    -0.38300
N537        N  0.37734445  0.15347816  0.59923503    -0.37700
N538        N  0.32645417  0.65845507  0.71362868    -0.37700
C539        C  0.27580084  0.95869195  0.65735031    -0.04400
C540        C  0.25778141  0.94535254  0.64009962    -0.01500
C541        C  0.22363773  0.92524092  0.64171792     0.03500
C542        C  0.20657760  0.92216736  0.66033457    -0.04400
C543        C  0.04739401  0.40910815  0.68708438    -0.01500
C544        C  0.08391011  0.42425158  0.68836304     0.03500
C545        C  0.27161196  0.95654785  0.62090490     0.38100
C546        C  0.02530763  0.40457598  0.70490683     0.38100
C547        C  0.09847320  0.43623110  0.70744897     0.36500
C548        C  0.20403725  0.91210627  0.62419871     0.36500
N549        N  0.10838250  0.44563450  0.72302623    -0.38300
N550        N  0.18954379  0.90128317  0.60990546    -0.38300
N551        N  0.00851121  0.40154802  0.71941377    -0.37700
N552        N  0.28205622  0.96582689  0.60553475    -0.37700
C553        C  0.17982521  0.32916274  0.76911217    -0.04400
C554        C  0.21188878  0.34565951  0.75981876    -0.01500
C555        C  0.21808929  0.34131276  0.73922345     0.03500
C556        C  0.19194008  0.32140002  0.72721238    -0.04400
C557        C  0.15920421  0.30616674  0.73612838    -0.01500
C558        C  0.15341425  0.30948981  0.75682711     0.03500
C559        C  0.23960445  0.36628699  0.77142156     0.38100
C560        C  0.13198074  0.28537579  0.72409402     0.38100
C561        C  0.12062130  0.29123744  0.76538186     0.36500
C562        C  0.25174168  0.35740492  0.73041550     0.36500
N563        N  0.09470412  0.27617178  0.77219427    -0.38300
N564        N  0.27885969  0.37017633  0.72365059    -0.38300
N565        N  0.11012400  0.26874454  0.71461464    -0.37700
N566        N  0.26124097  0.38330173  0.78079240    -0.37700
C567        C  0.09533921  0.46485870  0.83337026    -0.04400
C568        C  0.08955850  0.44273708  0.81621903    -0.01500
C569        C  0.08841227  0.40371322  0.81779357     0.03500
C570        C  0.09661559  0.38825024  0.83616844    -0.04400
C571        C  0.09168260  0.41022332  0.85341692    -0.01500
C572        C  0.08834356  0.44893643  0.85176074     0.03500
C573        C  0.09390994  0.45958573  0.79703135     0.38100
C574        C  0.09607907  0.39485677  0.87274891     0.38100
C575        C  0.08713554  0.47296193  0.86915957     0.36500
C576        C  0.08706555  0.38034519  0.80013477     0.36500
N577        N  0.08631271  0.49226503  0.88299668    -0.38300
N578        N  0.08585852  0.36215393  0.78588038    -0.38300
N579        N  0.09950209  0.38491623  0.88872799    -0.37700
N580        N  0.09787293  0.47285370  0.78170672    -0.37700
C581        C  0.29840443  0.18843640  0.80870687    -0.04400
C582        C  0.31383042  0.21623354  0.82151826    -0.01500
C583        C  0.29687047  0.25092110  0.82275015     0.03500
C584        C  0.26369464  0.25564237  0.81227451    -0.04400
C585        C  0.25442417  0.23143259  0.79632531    -0.01500
C586        C  0.27300147  0.19819708  0.79408812     0.03500
C587        C  0.34431228  0.20822732  0.83450207     0.38100
C588        C  0.22379535  0.23882437  0.78328883     0.38100
C589        C  0.26326240  0.17232784  0.77801561     0.36500
C590        C  0.31119348  0.28011828  0.83588502     0.36500
N591        N  0.25542434  0.15179274  0.76520825    -0.38300
N592        N  0.32213202  0.30347393  0.84656025    -0.38300
N593        N  0.19936899  0.24350604  0.77267575    -0.37700
N594        N  0.36876768  0.20202756  0.84484961    -0.37700
C595        C  0.17210204  0.53130763  0.77106527    -0.04400
C596        C  0.28516473  0.05699609  0.74420676    -0.01500
C597        C  0.28911664  0.05614311  0.72341046     0.03500
C598        C  0.16769080  0.52952217  0.72897502    -0.04400
C599        C  0.18064952  0.49861468  0.73923911    -0.01500
C600        C  0.18159351  0.49901374  0.76004459     0.03500
C601        C  0.25124586  0.04070748  0.75266567     0.38100
C602        C  0.18969652  0.46461698  0.72865148     0.38100
C603        C  0.19056470  0.46512307  0.77002482     0.36500
C604        C  0.25795858  0.04301664  0.71119250     0.36500
N605        N  0.19718560  0.43822300  0.77821091    -0.38300
N606        N  0.23320467  0.03264172  0.70139874    -0.38300
N607        N  0.19576480  0.43681835  0.72058520    -0.37700
N608        N  0.22427082  0.02696093  0.75910527    -0.37700
C609        C  0.41624007  0.34192745  0.76963266    -0.04400
C610        C  0.38497683  0.32768725  0.75865299    -0.01500
C611        C  0.38747105  0.32147911  0.73789987     0.03500
C612        C  0.42163802  0.32782610  0.72768916    -0.04400
C613        C  0.99981245  0.24038832  0.74505793    -0.01500
C614        C  0.00273306  0.23807191  0.76577487     0.03500
C615        C  0.34953168  0.32030937  0.76846135     0.38100
C616        C  0.00452877  0.27671008  0.73613634     0.38100
C617        C  0.00652658  0.27235456  0.77745136     0.36500
C618        C  0.35449864  0.30858645  0.72710133     0.36500
N619        N  0.00976970  0.29976050  0.78665185    -0.38300
N620        N  0.32822383  0.29818675  0.71849248    -0.38300
N621        N  0.00941467  0.30576493  0.72927688    -0.37700
N622        N  0.32114550  0.31437571  0.77617089    -0.37700
C623        C  0.33140228  0.49860198  0.83923850    -0.04400
C624        C  0.88519930  0.30686429  0.85653646    -0.01500
C625        C  0.90838617  0.27625229  0.85738294     0.03500
C626        C  0.35462896  0.42607992  0.83908198    -0.04400
C627        C  0.33371708  0.43834606  0.82304753    -0.01500
C628        C  0.31915758  0.47427083  0.82393334     0.03500
C629        C  0.88176772  0.33196520  0.87339872     0.38100
C630        C  0.33353330  0.41716273  0.80469586     0.38100
C631        C  0.30236078  0.48978774  0.80672706     0.36500
C632        C  0.92961333  0.27015086  0.87507597     0.36500
N633        N  0.28920147  0.50216474  0.79288013    -0.38300
N634        N  0.94653121  0.26630380  0.88932383    -0.38300
N635        N  0.33551410  0.40018585  0.79010415    -0.37700
N636        N  0.87918665  0.35210458  0.88681470    -0.37700
C637        C  0.52357476  0.18654009  0.82111237    -0.04400
C638        C  0.52263970  0.20970460  0.80471791    -0.01500
C639        C  0.50397267  0.24341216  0.80605271     0.03500
C640        C  0.48652765  0.25353079  0.82394694    -0.04400
C641        C  0.10812355  0.11952448  0.85012203    -0.01500
C642        C  0.13304755  0.09041211  0.84887248     0.03500
C643        C  0.54208954  0.19914406  0.78684917     0.38100
C644        C  0.08734129  0.12476433  0.86823342     0.38100
C645        C  0.14208279  0.06936967  0.86616627     0.36500
C646        C  0.49909555  0.26508610  0.78852590     0.36500
N647        N  0.14945623  0.05254923  0.87990911    -0.38300
N648        N  0.49487581  0.28170893  0.77432050    -0.38300
N649        N  0.07046818  0.12683059  0.88274895    -0.37700
N650        N  0.55937201  0.19170194  0.77298207    -0.37700
C651        C  0.52280955  0.06911224  0.75737449    -0.04400
C652        C  0.52471648  0.10044718  0.74520036    -0.01500
C653        C  0.53823616  0.09711268  0.72566526     0.03500
C654        C  0.53851407  0.06184185  0.71609774    -0.04400
C655        C  0.92529580  0.38744738  0.73628695    -0.01500
C656        C  0.92444138  0.38370007  0.75701855     0.03500
C657        C  0.50757701  0.13439869  0.75153804     0.38100
C658        C  0.93177770  0.35496975  0.72396507     0.38100
C659        C  0.92522423  0.34689813  0.76544343     0.36500
C660        C  0.55324681  0.12970884  0.71586221     0.36500
N661        N  0.92559680  0.31747503  0.77209286    -0.38300
N662        N  0.56619638  0.15512397  0.70775925    -0.38300
N663        N  0.93791178  0.33013771  0.71351673    -0.37700
N664        N  0.49151795  0.16064137  0.75591256    -0.37700
C665        C  0.20846763  0.30447301  0.92920369    -0.04400
C666        C  0.23650312  0.29429579  0.91572145    -0.01500
C667        C  0.22934684  0.29323465  0.89521300     0.03500
C668        C  0.19438019  0.30301354  0.88781509    -0.04400
C669        C  0.16495312  0.30786786  0.90141771    -0.01500
C670        C  0.17215598  0.30975292  0.92198546     0.03500
C671        C  0.27207445  0.28269738  0.92307595     0.38100
C672        C  0.12692778  0.30714703  0.89438215     0.38100
C673        C  0.14190249  0.31530457  0.93582074     0.36500
C674        C  0.25555704  0.27559516  0.88222601     0.36500
N675        N  0.11781288  0.31945545  0.94694169    -0.38300
N676        N  0.27616204  0.25893164  0.87275859    -0.38300
N677        N  0.09647422  0.30506319  0.88881997    -0.37700
N678        N  0.30019855  0.27290766  0.92896858    -0.37700
C679        C  0.22684093  0.54500719  0.92992756    -0.04400
C680        C  0.24594634  0.08875642  0.90548023    -0.01500
C681        C  0.25445248  0.09529014  0.88531795     0.03500
C682        C  0.20470322  0.53662084  0.88954364    -0.04400
C683        C  0.23150376  0.51305235  0.89776604    -0.01500
C684        C  0.24303882  0.51797588  0.91759478     0.03500
C685        C  0.21363607  0.10557990  0.91431717     0.38100
C686        C  0.24668791  0.48255518  0.88634464     0.38100
C687        C  0.27185629  0.49511927  0.92538428     0.36500
C688        C  0.23302861  0.12155601  0.87449528     0.36500
N689        N  0.29490256  0.47694065  0.93152494    -0.38300
N690        N  0.21617531  0.14268238  0.86586228    -0.38300
N691        N  0.25847992  0.45779379  0.87745820    -0.37700
N692        N  0.18779987  0.11906859  0.92126461    -0.37700
C693        C  0.00821670  0.19436089  0.93526558    -0.04400
C694        C  0.04225351  0.19790170  0.92487021    -0.01500
C695        C  0.04220724  0.19998882  0.90419866     0.03500
C696        C  0.00858631  0.19332190  0.89368657    -0.04400
C697        C  0.40997539  0.32706341  0.90294957    -0.01500
C698        C  0.41889068  0.32067196  0.92291779     0.03500
C699        C  0.07730173  0.19932388  0.93550788     0.38100
C700        C  0.37222649  0.33590239  0.89775532     0.38100
C701        C  0.39066796  0.32414930  0.93813746     0.36500
C702        C  0.07696940  0.20823330  0.89385923     0.36500
N703        N  0.36824176  0.32702731  0.95032552    -0.38300
N704        N  0.10473699  0.21476259  0.88566071    -0.38300
N705        N  0.34205199  0.34293815  0.89369233    -0.37700
N706        N  0.10516643  0.20031717  0.94404491    -0.37700
C707        C  0.05838537  0.95854491  0.92691325    -0.04400
C708        C  0.44314679  0.57548195  0.91838890    -0.01500
C709        C  0.43219958  0.57518288  0.89839338     0.03500
C710        C  0.07828992  0.97198806  0.88625755    -0.04400
C711        C  0.10434287  0.95767656  0.89972702    -0.01500
C712        C  0.09427853  0.95077793  0.91969603     0.03500
C713        C  0.42314649  0.59759077  0.93279684     0.38100
C714        C  0.14218975  0.95087868  0.89348660     0.38100
C715        C  0.12132622  0.93633138  0.93311018     0.36500
C716        C  0.40065745  0.59687178  0.89296499     0.36500
N717        N  0.14283098  0.92484142  0.94386302    -0.38300
N718        N  0.37558939  0.61438882  0.88877111    -0.38300
N719        N  0.17254228  0.94559932  0.88869240    -0.37700
N720        N  0.40742126  0.61544998  0.94425356    -0.37700
C721        C  0.21733965  0.25896883  0.56841634    -0.04400
C722        C  0.22383902  0.23193587  0.58281573    -0.01500
C723        C  0.22572482  0.24212751  0.60311229     0.03500
C724        C  0.21588214  0.27829119  0.60961261    -0.04400
C725        C  0.20536215  0.30397214  0.59515439    -0.01500
C726        C  0.20991188  0.29561707  0.57485110     0.03500
C727        C  0.22852633  0.19348197  0.57666594     0.38100
C728        C  0.18796289  0.33835605  0.60082988     0.38100
C729        C  0.20574015  0.32463758  0.56049847     0.36500
C730        C  0.23509457  0.21429680  0.61731409     0.36500
N731        N  0.20220466  0.34771760  0.54904963    -0.38300
N732        N  0.24257358  0.19201925  0.62860211    -0.38300
N733        N  0.17353501  0.36557330  0.60522158    -0.37700
N734        N  0.23220149  0.16288979  0.57160456    -0.37700
C735        C  0.15436818  0.51577996  0.56642694    -0.04400
C736        C  0.31922025  0.05645604  0.56216332    -0.01500
C737        C  0.32131054  0.06454180  0.58262478     0.03500
C738        C  0.16060727  0.52110107  0.60875859    -0.04400
C739        C  0.18286438  0.49652290  0.59745989    -0.01500
C740        C  0.17924749  0.49349598  0.57665181     0.03500
C741        C  0.30004975  0.08114084  0.54925739     0.38100
C742        C  0.20945330  0.47360963  0.60705057     0.38100
C743        C  0.20031243  0.46616943  0.56574850     0.36500
C744        C  0.30549767  0.09853293  0.59020399     0.36500
N745        N  0.21691012  0.44423389  0.55705832    -0.38300
N746        N  0.29304297  0.12569785  0.59629111    -0.38300
N747        N  0.23080070  0.45554233  0.61476689    -0.37700
N748        N  0.28461111  0.10066531  0.53895077    -0.37700
C749        C  0.45918451  0.26814187  0.56859506    -0.04400
C750        C  0.95591184  0.19018232  0.58200636    -0.01500
C751        C  0.95969849  0.18621822  0.60259013     0.03500
C752        C  0.44582123  0.28783219  0.60927630    -0.04400
C753        C  0.47748018  0.30283457  0.59891405    -0.01500
C754        C  0.48322163  0.29411166  0.57863963     0.03500
C755        C  0.93466671  0.16229048  0.57051405     0.38100
C756        C  0.50503893  0.32681386  0.60895959     0.38100
C757        C  0.51384632  0.31234400  0.56805909     0.36500
C758        C  0.94199761  0.15384809  0.61172397     0.36500
N759        N  0.53835011  0.32682803  0.55966326    -0.38300
N760        N  0.92808727  0.12771964  0.61882350    -0.38300
N761        N  0.52732287  0.34572509  0.61689891    -0.37700
N762        N  0.91781755  0.14011491  0.56128157    -0.37700
C763        C  0.57056681  0.02077767  0.55630541    -0.04400
C764        C  0.91992182  0.42451296  0.57384673    -0.01500
C765        C  0.92502793  0.41744739  0.59413308     0.03500
C766        C  0.55726425  0.03800912  0.59694465    -0.04400
C767        C  0.55949201  0.06665529  0.58287855    -0.01500
C768        C  0.56501913  0.05792069  0.56263066     0.03500
C769        C  0.92981324  0.39684278  0.55907362     0.38100
C770        C  0.55537925  0.10512905  0.58907084     0.38100
C771        C  0.56477921  0.08718916  0.54818193     0.36500
C772        C  0.93924499  0.38200948  0.59989360     0.36500
N773        N  0.56454079  0.11045794  0.53661028    -0.38300
N774        N  0.95028701  0.35349379  0.60432171    -0.38300
N775        N  0.55205764  0.13590059  0.59391689    -0.37700
N776        N  0.93774229  0.37479089  0.54728294    -0.37700
C777        C  0.22729508  0.23194778  0.38903099    -0.04400
C778        C  0.21086862  0.25852683  0.40200982    -0.01500
C779        C  0.21032750  0.25367233  0.42273978     0.03500
C780        C  0.22535126  0.22198379  0.43123010    -0.04400
C781        C  0.24359952  0.19648174  0.41859725    -0.01500
C782        C  0.24531869  0.20184103  0.39782446     0.03500
C783        C  0.19445606  0.29157652  0.39434578     0.38100
C784        C  0.25900917  0.16339557  0.42674924     0.38100
C785        C  0.26459993  0.17521176  0.38557075     0.36500
C786        C  0.19427457  0.28175054  0.43552831     0.36500
N787        N  0.27991008  0.15387288  0.37580250    -0.38300
N788        N  0.18158341  0.30408696  0.44578116    -0.38300
N789        N  0.27122666  0.13683341  0.43312781    -0.37700
N790        N  0.18113752  0.31795667  0.38840287    -0.37700
C791        C  0.13938106  0.51239531  0.38532049    -0.04400
C792        C  0.33422386  0.03586320  0.38737789    -0.01500
C793        C  0.33383595  0.02997316  0.40791555     0.03500
C794        C  0.14534643  0.49626724  0.42641901    -0.04400
C795        C  0.14690630  0.46737265  0.41211151    -0.01500
C796        C  0.14341416  0.47514294  0.39175146     0.03500
C797        C  0.34122219  0.07355046  0.38054599     0.38100
C798        C  0.15275085  0.42965693  0.41840964     0.38100
C799        C  0.14499950  0.44445145  0.37761423     0.36500
C800        C  0.33863757  0.06153665  0.42150167     0.36500
N801        N  0.14615728  0.41965537  0.36650498    -0.38300
N802        N  0.34265073  0.08666174  0.43231746    -0.38300
N803        N  0.15774130  0.39968965  0.42351211    -0.37700
N804        N  0.34732988  0.10358330  0.37517820    -0.37700
C805        C  0.46623687  0.27378956  0.38863374    -0.04400
C806        C  0.43424221  0.27678901  0.40062277    -0.01500
C807        C  0.43719018  0.27441056  0.42137579     0.03500
C808        C  0.46899894  0.25867536  0.42996688    -0.04400
C809        C  0.99751934  0.17637825  0.43041235    -0.01500
C810        C  0.00706825  0.17354569  0.41035646     0.03500
C811        C  0.39807084  0.28121800  0.39182154     0.38100
C812        C  0.01916256  0.15724924  0.44481715     0.38100
C813        C  0.04327338  0.16068598  0.40441676     0.36500
C814        C  0.40798600  0.28955350  0.43362833     0.36500
N815        N  0.07240942  0.15111310  0.39963177    -0.38300
N816        N  0.38477825  0.30193150  0.44335547    -0.38300
N817        N  0.03581118  0.14118045  0.45624999    -0.37700
N818        N  0.36865463  0.28325329  0.38512433    -0.37700
C819        C  0.37051986  0.33627542  0.32762743    -0.04400
C820        C  0.35128735  0.33191878  0.30965414    -0.01500
C821        C  0.31231199  0.32711004  0.30967375     0.03500
C822        C  0.29283072  0.32555214  0.32776827    -0.04400
C823        C  0.31114295  0.33812882  0.34514847    -0.01500
C824        C  0.35028183  0.34450024  0.34491730     0.03500
C825        C  0.37151236  0.32589205  0.29141657     0.38100
C826        C  0.29072242  0.33894839  0.36361450     0.38100
C827        C  0.37002013  0.35590020  0.36271228     0.36500
C828        C  0.29376300  0.31618612  0.29138510     0.36500
N829        N  0.38565252  0.36530118  0.37694975    -0.38300
N830        N  0.28092146  0.30692152  0.27639074    -0.38300
N831        N  0.27434948  0.33929073  0.37834896    -0.37700
N832        N  0.38587646  0.32010918  0.27645194    -0.37700
C833        C  0.07994875  0.10910057  0.33480389    -0.04400
C834        C  0.09212689  0.11517328  0.31537364    -0.01500
C835        C  0.12154359  0.14189837  0.31245297     0.03500
C836        C  0.14270233  0.15493964  0.32893494    -0.04400
C837        C  0.13818261  0.13642386  0.34697042    -0.01500
C838        C  0.10788378  0.11093282  0.34924087     0.03500
C839        C  0.06763391  0.10354713  0.29929168     0.38100
C840        C  0.16249471  0.14530676  0.36351839     0.38100
C841        C  0.10348022  0.09045878  0.36718393     0.36500
C842        C  0.12685318  0.15806184  0.29326070     0.36500
N843        N  0.10255139  0.07439028  0.38178228    -0.38300
N844        N  0.12915975  0.17047572  0.27768131    -0.38300
N845        N  0.18118982  0.15203120  0.37705244    -0.37700
N846        N  0.04788134  0.09446484  0.28649662    -0.37700
C847        C  0.42177183  0.53928215  0.38619533    -0.04400
C848        C  0.41154487  0.50360347  0.39370846    -0.01500
C849        C  0.40431660  0.49884180  0.41408909     0.03500
C850        C  0.40795579  0.52927329  0.42751803    -0.04400
C851        C  0.05697671  0.00767404  0.40765992    -0.01500
C852        C  0.05153523  0.99484775  0.38789577     0.03500
C853        C  0.40672341  0.47172135  0.38040393     0.38100
C854        C  0.05066451  0.04618468  0.41301326     0.38100
C855        C  0.03651692  0.02006973  0.37375840     0.36500
C856        C  0.39253989  0.46243314  0.42129091     0.36500
N857        N  0.02466797  0.04028023  0.36248274    -0.38300
N858        N  0.38278157  0.43345605  0.42697035    -0.38300
N859        N  0.04524731  0.07668739  0.41758696    -0.37700
N860        N  0.40296321  0.44655294  0.36960303    -0.37700
C861        C  0.24606361  0.50882174  0.32892000    -0.04400
C862        C  0.44889348  0.98875880  0.32656804    -0.01500
C863        C  0.48795816  0.99150530  0.32685125     0.03500
C864        C  0.32332078  0.51251822  0.32919628    -0.04400
C865        C  0.30471428  0.49452646  0.31324405    -0.01500
C866        C  0.26566589  0.49448381  0.31259908     0.03500
C867        C  0.42833276  0.97787848  0.34416219     0.38100
C868        C  0.32558931  0.47849295  0.29705712     0.38100
C869        C  0.24636477  0.48438273  0.29440586     0.36500
C870        C  0.50780983  0.98252151  0.34462327     0.36500
N871        N  0.23118351  0.47707368  0.27973720    -0.38300
N872        N  0.52336825  0.97541373  0.35888886    -0.38300
N873        N  0.34205100  0.46495873  0.28428200    -0.37700
N874        N  0.41196839  0.96941275  0.35822384    -0.37700
C875        C  0.96032676  0.53636771  0.33050155    -0.04400
C876        C  0.97449560  0.55418629  0.31357006    -0.01500
C877        C  0.01187006  0.56763027  0.31332966     0.03500
C878        C  0.03434902  0.56299872  0.32997637    -0.04400
C879        C  0.20183685  0.03492437  0.34069099    -0.01500
C880        C  0.16546109  0.01946091  0.34161493     0.03500
C881        C  0.95260269  0.55391989  0.29568308     0.38100
C882        C  0.22555293  0.03550231  0.35798233     0.38100
C883        C  0.15223857  0.00279744  0.35979711     0.36500
C884        C  0.02829818  0.58220656  0.29539903     0.36500
N885        N  0.14287115  0.98953043  0.37450842    -0.38300
N886        N  0.04107752  0.59390744  0.28099645    -0.38300
N887        N  0.24407068  0.03599446  0.37191081    -0.37700
N888        N  0.93552608  0.55378744  0.28126177    -0.37700
C889        C  0.21695544  0.29362254  0.06868934    -0.04400
C890        C  0.24601133  0.30115326  0.08224269    -0.01500
C891        C  0.24024339  0.29643402  0.10277420     0.03500
C892        C  0.20433060  0.28557034  0.11050597    -0.04400
C893        C  0.17479002  0.27947099  0.09668501    -0.01500
C894        C  0.18137108  0.28264662  0.07604377     0.03500
C895        C  0.28218584  0.31425664  0.07498169     0.38100
C896        C  0.13710888  0.27084804  0.10339658     0.38100
C897        C  0.15120462  0.27504861  0.06220511     0.36500
C898        C  0.27177867  0.30421759  0.11573905     0.36500
N899        N  0.12724236  0.26899111  0.05110389    -0.38300
N900        N  0.29700600  0.31053203  0.12600383    -0.38300
N901        N  0.10677369  0.26457589  0.10854445    -0.37700
N902        N  0.31103974  0.32489528  0.06929989    -0.37700
C903        C  0.18357436  0.27249730  0.23005291    -0.04400
C904        C  0.18241753  0.23589005  0.23737591    -0.01500
C905        C  0.19471825  0.22909112  0.25675655     0.03500
C906        C  0.19990398  0.25890358  0.27048909    -0.04400
C907        C  0.19639159  0.29581676  0.26373424    -0.01500
C908        C  0.19119918  0.30249110  0.24340591     0.03500
C909        C  0.16780421  0.20524024  0.22515757     0.38100
C910        C  0.20035777  0.32727158  0.27743431     0.38100
C911        C  0.19395103  0.34033023  0.23632081     0.36500
C912        C  0.20345729  0.19161718  0.26217293     0.36500
N913        N  0.19680585  0.37070993  0.23095710    -0.38300
N914        N  0.21122102  0.16181845  0.26637130    -0.38300
N915        N  0.20372459  0.35235521  0.28833514    -0.37700
N916        N  0.15523584  0.18086172  0.21561612    -0.37700
C917        C  0.21128813  0.57006984  0.10997163    -0.04400
C918        C  0.26200362  0.02852656  0.08904871    -0.01500
C919        C  0.25196005  0.02881780  0.06893971     0.03500
C920        C  0.22736827  0.56269695  0.06856724    -0.04400
C921        C  0.25215531  0.58298054  0.08131908    -0.01500
C922        C  0.24410759  0.58688675  0.10175883     0.03500
C923        C  0.23893470  0.00632015  0.10238724     0.38100
C924        C  0.28625393  0.59979400  0.07339918     0.38100
C925        C  0.26896435  0.60982631  0.11415248     0.36500
C926        C  0.21955828  0.00700819  0.06198346     0.36500
N927        N  0.28859738  0.62829947  0.12406087    -0.38300
N928        N  0.19363534  0.98981192  0.05642564    -0.38300
N929        N  0.31349163  0.61334924  0.06717239    -0.37700
N930        N  0.22027588  0.98873387  0.11294592    -0.37700
C931        C  0.17300095  0.46534452  0.16794408    -0.04400
C932        C  0.18634528  0.44551174  0.15149104    -0.01500
C933        C  0.18410472  0.40659478  0.15132154     0.03500
C934        C  0.16881757  0.38770876  0.16766874    -0.04400
C935        C  0.15243284  0.40745097  0.18331317    -0.01500
C936        C  0.15571177  0.44649389  0.18380433     0.03500
C937        C  0.20427553  0.46499216  0.13520939     0.38100
C938        C  0.13395337  0.38764908  0.19929732     0.38100
C939        C  0.14514749  0.46651357  0.20155050     0.36500
C940        C  0.19782754  0.38618702  0.13431840     0.36500
N941        N  0.13735620  0.48113814  0.21623672    -0.38300
N942        N  0.20877804  0.37099671  0.12040876    -0.38300
N943        N  0.11890687  0.37198057  0.21198458    -0.37700
N944        N  0.21909547  0.48007144  0.12226333    -0.37700
C945        C  0.22664543  0.09810413  0.16649428    -0.04400
C946        C  0.21053351  0.11529549  0.15039719    -0.01500
C947        C  0.20377488  0.15337283  0.15161185     0.03500
C948        C  0.21153934  0.17325573  0.16934603    -0.04400
C949        C  0.22448040  0.15485101  0.18599953    -0.01500
C950        C  0.22798554  0.11622589  0.18497810     0.03500
C951        C  0.20485429  0.09473912  0.13200738     0.38100
C952        C  0.23850172  0.17559575  0.20313179     0.38100
C953        C  0.23718312  0.09551753  0.20232753     0.36500
C954        C  0.19334053  0.17288981  0.13402980     0.36500
N955        N  0.24354890  0.07879814  0.21625698    -0.38300
N956        N  0.18585317  0.18863579  0.11994297    -0.38300
N957        N  0.25099311  0.19175695  0.21663217    -0.37700
N958        N  0.19976501  0.07873163  0.11724997    -0.37700
C959        C  0.16857158  0.57266067  0.22808976    -0.04400
C960        C  0.33489263  0.00704073  0.22222431    -0.01500
C961        C  0.32917975  0.00355762  0.24271170     0.03500
C962        C  0.15432275  0.55925511  0.26888398    -0.04400
C963        C  0.18963316  0.57342389  0.26263982    -0.01500
C964        C  0.19699934  0.57939242  0.24239574     0.03500
C965        C  0.34195028  0.97394178  0.21030387     0.38100
C966        C  0.21931750  0.57972346  0.27694965     0.38100
C967        C  0.23401696  0.59280421  0.23655257     0.36500
C968        C  0.32680085  0.96624024  0.25058636     0.36500
N969        N  0.26365417  0.60337761  0.23203383    -0.38300
N970        N  0.32438333  0.93624502  0.25651264    -0.38300
N971        N  0.24305857  0.58459600  0.28830932    -0.37700
N972        N  0.34754298  0.94759390  0.20083545    -0.37700
C973        C  0.00925125  0.19518309  0.11639378    -0.04400
C974        C  0.45700466  0.30936865  0.09652866    -0.01500
C975        C  0.45877557  0.31325470  0.07581484     0.03500
C976        C  0.01416191  0.19631633  0.07444976    -0.04400
C977        C  0.04603581  0.18998754  0.08578209    -0.01500
C978        C  0.04370951  0.18949149  0.10658670     0.03500
C979        C  0.42257649  0.31830539  0.10654120     0.38100
C980        C  0.08133555  0.18391882  0.07595544     0.38100
C981        C  0.07675810  0.18170579  0.11777847     0.36500
C982        C  0.42583923  0.32269733  0.06491150     0.36500
N983        N  0.10296931  0.17568141  0.12686353    -0.38300
N984        N  0.39971069  0.33018299  0.05610968    -0.38300
N985        N  0.10948654  0.17898463  0.06814080    -0.37700
N986        N  0.39513324  0.32598419  0.11437430    -0.37700
C987        C  0.47613818  0.28633876  0.22696910    -0.04400
C988        C  0.46392427  0.31751246  0.23787197    -0.01500
C989        C  0.46570288  0.31821129  0.25872647     0.03500
C990        C  0.47187009  0.28508666  0.26908170    -0.04400
C991        C  0.97923180  0.16835493  0.26697528    -0.01500
C992        C  0.97774030  0.17217161  0.24633032     0.03500
C993        C  0.44860417  0.34862714  0.22776150     0.38100
C994        C  0.95136242  0.14354154  0.27603176     0.38100
C995        C  0.94683208  0.15375632  0.23574023     0.36500
C996        C  0.46126442  0.35320801  0.26934876     0.36500
N997        N  0.92188036  0.13929873  0.22752337    -0.38300
N998        N  0.45818124  0.38122627  0.27779743    -0.38300
N999        N  0.92922401  0.12344400  0.28299559    -0.37700
N1000       N  0.43538358  0.37315892  0.21988021    -0.37700
C1001       C  0.93799425  0.46935209  0.10816487    -0.04400
C1002       C  0.97684755  0.46721655  0.10391991    -0.01500
C1003       C  0.98996335  0.46279653  0.08424251     0.03500
C1004       C  0.96488089  0.46047778  0.06825136    -0.04400
C1005       C  0.51149255  0.05192171  0.07319887    -0.01500
C1006       C  0.52327452  0.04455176  0.09263313     0.03500
C1007       C  0.00377208  0.46717068  0.11981810     0.38100
C1008       C  0.47294478  0.06015123  0.06949197     0.38100
C1009       C  0.49655005  0.04649903  0.10869138     0.36500
C1010       C  0.02961277  0.46034551  0.08041313     0.36500
N1011       N  0.47543808  0.04865269  0.12156521    -0.38300
N1012       N  0.06124325  0.45876360  0.07731186    -0.38300
N1013       N  0.44226423  0.06686780  0.06643280    -0.37700
N1014       N  0.02538596  0.46685074  0.13242187    -0.37700
C1015       C  0.47943927  0.47833271  0.16631161    -0.04400
C1016       C  0.97992458  0.36659949  0.18089460    -0.01500
C1017       C  0.99087071  0.32997711  0.18398123     0.03500
C1018       C  0.48983191  0.40161804  0.16748023    -0.04400
C1019       C  0.48428956  0.41869060  0.14924798    -0.01500
C1020       C  0.47856124  0.45704377  0.14869182     0.03500
C1021       C  0.00240827  0.39743297  0.18925899     0.38100
C1022       C  0.48665293  0.39757474  0.13093395     0.38100
C1023       C  0.47144536  0.47454111  0.13001619     0.36500
C1024       C  0.02307902  0.32391968  0.19623393     0.36500
N1025       N  0.46602150  0.48812206  0.11501271    -0.38300
N1026       N  0.04851740  0.31905284  0.20614548    -0.38300
N1027       N  0.48967131  0.38237706  0.11587428    -0.37700
N1028       N  0.02059760  0.42183842  0.19588719    -0.37700
C1029       C  0.52374333  0.11503446  0.15948738    -0.04400
C1030       C  0.52206136  0.13719115  0.14256203    -0.01500
C1031       C  0.50019715  0.16868887  0.14282459     0.03500
C1032       C  0.48201270  0.17951162  0.16030292    -0.04400
C1033       C  0.01483557  0.05908652  0.17409601    -0.01500
C1034       C  0.02706940  0.02235413  0.17249495     0.03500
C1035       C  0.54400391  0.12885527  0.12511291     0.38100
C1036       C  0.97511836  0.06422410  0.17665268     0.38100
C1037       C  0.99982673  0.99173714  0.17486950     0.36500
C1038       C  0.49771703  0.19118311  0.12535851     0.36500
N1039       N  0.97801304  0.96751616  0.17691044    -0.38300
N1040       N  0.49547920  0.20848034  0.11122261    -0.38300
N1041       N  0.94340846  0.06787541  0.17858796    -0.37700
N1042       N  0.56162575  0.12314494  0.11113251    -0.37700
C1043       C  0.42624149  0.56139818  0.26663014    -0.04400
C1044       C  0.07832058  0.94827188  0.25082618    -0.01500
C1045       C  0.09046315  0.94594849  0.23094595     0.03500
C1046       C  0.42254643  0.57118551  0.22476154    -0.04400
C1047       C  0.41677577  0.53549039  0.23295666    -0.01500
C1048       C  0.42073535  0.53031276  0.25352418     0.03500
C1049       C  0.05916310  0.98112296  0.25740198     0.38100
C1050       C  0.40831183  0.50353171  0.22009777     0.38100
C1051       C  0.42073393  0.49260326  0.26079931     0.36500
C1052       C  0.09074458  0.97919623  0.21921219     0.36500
N1053       N  0.42171942  0.46234606  0.26630375    -0.38300
N1054       N  0.09138978  0.00684461  0.21074942    -0.38300
N1055       N  0.40140616  0.47806712  0.20986350    -0.37700
N1056       N  0.04290320  0.00697283  0.26226092    -0.37700
O1057       O  0.94521934  0.49001504  0.14221788    -0.70800
O1058       O  0.13289467  0.92052962  0.19070175    -0.71100
O1059       O  0.15004125  0.87532453  0.15924874    -0.70900
O1060       O  0.91310532  0.53515497  0.16900447    -0.70900
O1061       O  0.38240569  0.60992518  0.16218566    -0.70900
O1062       O  0.59630031  0.96915343  0.15172498    -0.70900
O1063       O  0.39931109  0.56219258  0.19138349    -0.70800
O1064       O  0.55414479  0.01232427  0.12934778    -0.71000
V1065       V  0.12974674  0.92293028  0.16223952     1.35200
V1066       V  0.56733581  0.01080080  0.15666608     1.35200
C1067       C  0.92441877  0.47396614  0.12936910     0.78400
C1068       C  0.60528325  0.02843772  0.19122574     0.78500
C1069       C  0.12790157  0.84741426  0.15771640     0.78300
C1070       C  0.87992456  0.53907186  0.16335704     0.78300
O1071       O  0.02790121  0.65977192  0.13158229    -0.70800
O1072       O  0.03427840  0.65751300  0.18741052    -0.71100
O1073       O  0.98214710  0.63680062  0.16057690    -0.70900
O1074       O  0.08029465  0.68027634  0.15820312    -0.70900
O1075       O  0.54915210  0.86269867  0.15509489    -0.70900
O1076       O  0.45886399  0.80448214  0.15979943    -0.70900
O1077       O  0.50993630  0.83246735  0.18526669    -0.70800
O1078       O  0.49839600  0.83486881  0.12980603    -0.71000
V1079       V  0.03062297  0.65954632  0.15952947     1.35200
V1080       V  0.50472084  0.83272592  0.15749181     1.35200
C1081       C  0.01727551  0.68844093  0.12298623     0.78400
C1082       C  0.52841560  0.80742802  0.19307015     0.78500
C1083       C  0.45983525  0.76935563  0.15975828     0.78300
C1084       C  0.57963269  0.84754061  0.15124275     0.78300
O1085       O  0.32175508  0.07601339  0.12627863    -0.70800
O1086       O  0.34546758  0.07023638  0.18120891    -0.71100
O1087       O  0.37926846  0.05011270  0.14693967    -0.70900
O1088       O  0.22760142  0.62372134  0.17353355    -0.70900
O1089       O  0.16932724  0.63088083  0.16634369    -0.70900
O1090       O  0.34986599  0.99655720  0.15061742    -0.70900
O1091       O  0.31194451  0.01874731  0.18234083    -0.70800
O1092       O  0.29641248  0.02041426  0.12735806    -0.71000
V1093       V  0.33367041  0.07221791  0.15367973     1.35200
V1094       V  0.30507816  0.02063104  0.15484485     1.35200
C1095       C  0.30454073  0.04903622  0.11745391     0.78400
C1096       C  0.33103425  0.04394491  0.19130936     0.78500
C1097       C  0.37958707  0.01509254  0.14671316     0.78300
C1098       C  0.20122292  0.64490107  0.17024047     0.78300
O1099       O  0.32799734  0.81613168  0.12877786    -0.70800
O1100       O  0.34301959  0.82447388  0.18504305    -0.71100
O1101       O  0.29983854  0.78201246  0.16061228    -0.70900
O1102       O  0.37328840  0.85816682  0.15268906    -0.70900
O1103       O  0.33058590  0.89942750  0.15452670    -0.70900
O1104       O  0.25646135  0.82253945  0.16286975    -0.70900
O1105       O  0.30065057  0.86560801  0.18680615    -0.70800
O1106       O  0.28542941  0.85710242  0.13123310    -0.71000
V1107       V  0.33529529  0.82109376  0.15687890     1.35200
V1108       V  0.29425159  0.86051073  0.15888170     1.35200
C1109       C  0.30322573  0.83473199  0.12046781     0.78400
C1110       C  0.32342211  0.84582654  0.19572542     0.78500
C1111       C  0.26599042  0.78900355  0.16279142     0.78300
C1112       C  0.36426494  0.89155175  0.15155779     0.78300
O1113       O  0.61928086  0.00320611  0.34308711    -0.70800
O1114       O  0.62297820  0.00408332  0.28673560    -0.71100
O1115       O  0.12446986  0.95338206  0.32523131    -0.70900
O1116       O  0.57025231  0.99040286  0.31396879    -0.70900
O1117       O  0.36926808  0.56058990  0.32789987    -0.70900
O1118       O  0.89735611  0.51279604  0.32713315    -0.70900
O1119       O  0.41833385  0.58337505  0.30027216    -0.70800
O1120       O  0.41891597  0.57451044  0.35614576    -0.71000
V1121       V  0.62122852  0.00462383  0.31488618     1.35200
V1122       V  0.41936779  0.57788367  0.32811649     1.35200
C1123       C  0.60831462  0.03111492  0.35294998     0.78400
C1124       C  0.62067968  0.03413984  0.27736152     0.78500
C1125       C  0.11515627  0.98650740  0.32274673     0.78300
C1126       C  0.54710209  0.01542121  0.31193900     0.78300
O1127       O  0.50596938  0.76492816  0.34181349    -0.70800
O1128       O  0.50289000  0.78223161  0.28684629    -0.71100
O1129       O  0.10562327  0.68853117  0.31935849    -0.70900
O1130       O  0.48331845  0.82039734  0.31938039    -0.70900
O1131       O  0.53844295  0.84729815  0.32218087    -0.70900
O1132       O  0.09491144  0.74694024  0.31463363    -0.70900
O1133       O  0.55706541  0.81121885  0.28845775    -0.70800
O1134       O  0.56223393  0.78939748  0.34295400    -0.71000
V1135       V  0.50528462  0.77434543  0.31434656     1.35200
V1136       V  0.55838928  0.80015703  0.31568846     1.35200
C1137       C  0.53497772  0.77345958  0.35168426     0.78400
C1138       C  0.52988318  0.79877080  0.27820569     0.78500
C1139       C  0.11760358  0.72105350  0.31589208     0.78300
C1140       C  0.50345396  0.84945120  0.32277713     0.78300
O1141       O  0.14587802  0.55422633  0.35772903    -0.70800
O1142       O  0.15401377  0.57650627  0.30320073    -0.71100
O1143       O  0.09909520  0.57973535  0.33047980    -0.70900
O1144       O  0.19901606  0.55177294  0.33065105    -0.70900
O1145       O  0.36558797  0.98137465  0.31025565    -0.70900
O1146       O  0.26453906  0.00544861  0.31465878    -0.70900
O1147       O  0.31350750  0.00060360  0.28474467    -0.70800
O1148       O  0.31659589  0.98581701  0.33996079    -0.71000
V1149       V  0.14901776  0.56449360  0.33031578     1.35200
V1150       V  0.31522338  0.99447170  0.31244445     1.35200
C1151       C  0.32617944  0.01191009  0.35185952     0.78400
C1152       C  0.32193582  0.03179821  0.27723907     0.78500
C1153       C  0.25559287  0.03843864  0.31854430     0.78300
C1154       C  0.39040156  0.00711535  0.31133523     0.78300
O1155       O  0.33512448  0.78158497  0.34523055    -0.70800
O1156       O  0.34337024  0.80351897  0.29009898    -0.71100
O1157       O  0.38028815  0.82596202  0.32326099    -0.70900
O1158       O  0.29880489  0.75903317  0.31252401    -0.70900
O1159       O  0.26153362  0.80507783  0.31604293    -0.70900
O1160       O  0.34280501  0.87146242  0.32774703    -0.70900
O1161       O  0.30669049  0.84943471  0.29446543    -0.70800
O1162       O  0.29693524  0.82596036  0.34932277    -0.71000
V1163       V  0.33884431  0.79353284  0.31783451     1.35200
V1164       V  0.30279079  0.83715220  0.32182314     1.35200
C1165       C  0.31361445  0.79902196  0.35674567     0.78400
C1166       C  0.32578350  0.82988824  0.28268520     0.78500
C1167       C  0.37541139  0.85983808  0.32743098     0.78300
C1168       C  0.26627383  0.77092103  0.31278276     0.78300
N1169       N  0.94507066  0.47539044  0.51809155    -0.35700
N1170       N  0.35360788  0.50578363  0.51598172    -0.56200
N1171       N  0.54064385  0.01207136  0.46521540    -0.35700
N1172       N  0.12161984  0.99453120  0.47021841    -0.56200
C1173       C  0.93308200  0.48326600  0.53665952     0.27900
C1174       C  0.97956228  0.49259088  0.51561512     0.27900
C1175       C  0.50317239  0.01832486  0.46746863     0.27900
C1176       C  0.55254591  0.02683764  0.44793865     0.27900
C1177       C  0.36112756  0.49706184  0.53481826     0.36500
C1178       C  0.31656029  0.49773040  0.51274537     0.36500
C1179       C  0.15974049  0.00021890  0.47056901     0.36500
C1180       C  0.10990924  0.00012183  0.45148617     0.38100
C1181       C  0.95990263  0.50607096  0.54603012    -0.20900
C1182       C  0.98816862  0.51320091  0.53258637    -0.20900
C1183       C  0.49165303  0.03776075  0.45130904    -0.20900
C1184       C  0.52212405  0.04210365  0.43885835    -0.20900
C1185       C  0.32847168  0.48359472  0.54370741    -0.22000
C1186       C  0.30087156  0.48270705  0.52962881    -0.22000
C1187       C  0.17102140  0.01325621  0.45227118    -0.22000
C1188       C  0.14029539  0.01136986  0.44012068    -0.22000
C1189       C  0.39495893  0.50700176  0.54494334    -0.17400
C1190       C  0.18314299  0.99680910  0.48785288    -0.17400
C1191       C  0.58956062  0.02631783  0.43961903    -0.17300
C1192       C  0.47981434  0.00692001  0.48394535    -0.17300
H1193       H  0.95892408  0.51710198  0.56096890     0.15600
H1194       H  0.01204327  0.53201469  0.53501794     0.15600
H1195       H  0.46421335  0.04805416  0.44872611     0.15600
H1196       H  0.52186964  0.05595454  0.42484725     0.15600
H1197       H  0.32452132  0.47547694  0.55885829     0.13800
H1198       H  0.27235989  0.47296784  0.53187935     0.13800
H1199       H  0.19808067  0.02478258  0.44809553     0.13800
H1200       H  0.13995258  0.01938936  0.42481399     0.13800
H1201       H  0.93189046  0.45598101  0.50854557     0.27100
H1202       H  0.55705766  0.99533560  0.47371607     0.27100
N1203       N  0.49241048  0.75266788  0.50332138    -0.35700
N1204       N  0.08095121  0.73574914  0.50795950    -0.56200
N1205       N  0.08006992  0.74141922  0.46825115    -0.35700
N1206       N  0.49474407  0.74935154  0.46367696    -0.56200
C1207       C  0.50531704  0.77177982  0.51934964     0.27900
C1208       C  0.45851047  0.76599151  0.49860136     0.27900
C1209       C  0.11611888  0.75378515  0.47178679     0.27900
C1210       C  0.06871855  0.75735437  0.45158192     0.27900
C1211       C  0.07138267  0.72230486  0.52585168     0.36500
C1212       C  0.11831088  0.73067677  0.50504899     0.36500
C1213       C  0.45729011  0.74094847  0.46553601     0.36500
C1214       C  0.50618139  0.73764160  0.44568385     0.36500
C1215       C  0.47955063  0.79795418  0.52489889    -0.20900
C1216       C  0.45051753  0.79495199  0.51152965    -0.20900
C1217       C  0.12712132  0.77853123  0.45732791    -0.20900
C1218       C  0.09790258  0.77973581  0.44426785    -0.20900
C1219       C  0.10321705  0.70914114  0.53460852    -0.22000
C1220       C  0.13250532  0.71388179  0.52142614    -0.22000
C1221       C  0.44497498  0.72321283  0.44829452    -0.22000
C1222       C  0.47563995  0.72119642  0.43586963    -0.22000
C1223       C  0.53606064  0.76149969  0.53091533    -0.17400
C1224       C  0.43578394  0.75187655  0.48262187    -0.17400
C1225       C  0.54098279  0.74898897  0.43665278    -0.17300
C1226       C  0.13881420  0.74257213  0.48777891    -0.17300
H1227       H  0.48125516  0.81683838  0.53751746     0.15600
H1228       H  0.42614425  0.81175193  0.51152837     0.15600
H1229       H  0.15363015  0.79372407  0.45610328     0.15600
H1230       H  0.09835651  0.79560940  0.43089739     0.15600
H1231       H  0.10528970  0.69745497  0.54913774     0.13800
H1232       H  0.16088066  0.70595770  0.52375891     0.13800
H1233       H  0.41725272  0.71287232  0.44458040     0.13800
H1234       H  0.47518106  0.71019226  0.42090014     0.13800
H1235       H  0.50433463  0.72882143  0.49740559     0.27100
H1236       H  0.06521317  0.71969495  0.47510681     0.27100
N1237       N  0.37800258  0.00699557  0.50439495    -0.35700
N1238       N  0.28734660  0.00891525  0.50570797    -0.56200
N1239       N  0.28605238  0.99899249  0.46534622    -0.35700
N1240       N  0.37662554  0.99840982  0.46450707    -0.56200
C1241       C  0.36778135  0.02440274  0.52132766     0.27900
C1242       C  0.41413802  0.01811600  0.50014250     0.27900
C1243       C  0.24902750  0.98956804  0.46903737     0.27900
C1244       C  0.29540695  0.98471980  0.44740111     0.27900
C1245       C  0.29973132  0.00270876  0.52415785     0.36500
C1246       C  0.25074443  0.99689830  0.50464686     0.36500
C1247       C  0.41423338  0.99399501  0.46637714     0.36500
C1248       C  0.36696232  0.98819297  0.44590031     0.36500
C1249       C  0.39774632  0.04676688  0.52804305    -0.20900
C1250       C  0.42662882  0.04314989  0.51464906    -0.20900
C1251       C  0.23609088  0.96731389  0.45340320    -0.20900
C1252       C  0.26424235  0.96598605  0.43950785    -0.20900
C1253       C  0.27116862  0.98564195  0.53490214    -0.22000
C1254       C  0.24101675  0.98056779  0.52243197    -0.22000
C1255       C  0.42794394  0.97931101  0.44892942    -0.22000
C1256       C  0.39857759  0.97699440  0.43584505    -0.22000
C1257       C  0.33433779  0.01667333  0.53229750    -0.17400
C1258       C  0.43565650  0.00580662  0.48342539    -0.17400
C1259       C  0.33061338  0.98867563  0.43731944    -0.17300
C1260       C  0.22807158  0.99689277  0.48703586    -0.17300
H1261       H  0.39885323  0.06368251  0.54141900     0.15600
H1262       H  0.45375206  0.05729625  0.51554113     0.15600
H1263       H  0.20938532  0.95245017  0.45224590     0.15600
H1264       H  0.26226620  0.95112172  0.42552881     0.15600
H1265       H  0.27224245  0.97698613  0.55008560     0.13800
H1266       H  0.21548717  0.96515436  0.52599180     0.13800
H1267       H  0.45610154  0.97137745  0.44574077     0.13800
H1268       H  0.40014476  0.96690700  0.42074070     0.13800
H1269       H  0.36218528  0.98536065  0.49767310     0.27100
H1270       H  0.30374806  0.01738931  0.47325429     0.27100
N1271       N  0.24273737  0.75279237  0.50601901    -0.35700
N1272       N  0.24012835  0.74778537  0.46607567    -0.56200
N1273       N  0.34804166  0.75951190  0.45637252    -0.35700
N1274       N  0.33370565  0.76143964  0.50345806    -0.56200
C1275       C  0.20523312  0.75782686  0.50333239     0.27900
C1276       C  0.25372977  0.77124438  0.52279194     0.27900
C1277       C  0.31648981  0.73923825  0.45142893     0.27900
C1278       C  0.36887972  0.73781966  0.46805242     0.27900
C1279       C  0.20319918  0.73879501  0.46834582     0.36500
C1280       C  0.24954868  0.74357068  0.44686050     0.36500
C1281       C  0.32422343  0.76008368  0.52294360     0.36500
C1282       C  0.37115085  0.75454468  0.50207536     0.36500
C1283       C  0.19256613  0.77945849  0.51889938    -0.20900
C1284       C  0.22270879  0.78756059  0.53112144    -0.20900
C1285       C  0.31713055  0.70456212  0.45986450    -0.20900
C1286       C  0.35026859  0.70333593  0.46986223    -0.20900
C1287       C  0.18939486  0.72693660  0.45001913    -0.22000
C1288       C  0.21828973  0.73146677  0.43634701    -0.22000
C1289       C  0.35539539  0.75100523  0.53366075    -0.22000
C1290       C  0.38428101  0.74644254  0.52059278    -0.22000
C1291       C  0.18291457  0.74503836  0.48659051    -0.17400
C1292       C  0.28977509  0.77092727  0.53200184    -0.17400
C1293       C  0.39182856  0.75163360  0.48376431    -0.17300
C1294       C  0.28654217  0.75065341  0.43956222    -0.17300
H1295       H  0.16470327  0.78928266  0.52103950     0.15600
H1296       H  0.22180495  0.80386365  0.54468492     0.15600
H1297       H  0.29570311  0.68254856  0.45896392     0.15600
H1298       H  0.35791177  0.68116146  0.47947382     0.15600
H1299       H  0.16145803  0.71655397  0.44661420     0.13800
H1300       H  0.21684341  0.72509915  0.42070489     0.13800
H1301       H  0.35718728  0.74736321  0.54942093     0.13800
H1302       H  0.41126689  0.73650910  0.52442952     0.13800
H1303       H  0.25973417  0.73495632  0.49807995     0.27100
H1304       H  0.35309860  0.78780701  0.45368878     0.27100
N1305       N  0.98634991  0.48426029  0.97645045    -0.35700
N1306       N  0.99001482  0.49192786  0.01692157    -0.56200
N1307       N  0.04735678  0.90007639  0.01397670    -0.35700
N1308       N  0.04097473  0.90546554  0.97416209    -0.56200
C1309       C  0.00225597  0.51967967  0.97733501     0.27900
C1310       C  0.99562160  0.46808449  0.95893670     0.27900
C1311       C  0.03875093  0.91001808  0.03278212     0.27900
C1312       C  0.03126262  0.86542530  0.01005032     0.27900
C1313       C  0.00054228  0.52831160  0.01321194     0.36500
C1314       C  0.99220634  0.48674157  0.03670004     0.36500
C1315       C  0.03780330  0.91787949  0.95548357     0.36500
C1316       C  0.03273112  0.86778496  0.97414456     0.36500
C1317       C  0.02327139  0.52478522  0.96027362    -0.20900
C1318       C  0.01778623  0.49316502  0.94841972    -0.20900
C1319       C  0.01707505  0.88167582  0.04109874    -0.20900
C1320       C  0.01098023  0.85453250  0.02661660    -0.20900
C1321       C  0.01282289  0.54472183  0.03084369    -0.22000
C1322       C  0.00564092  0.51955285  0.04558291    -0.22000
C1323       C  0.02594723  0.88821395  0.94344890    -0.22000
C1324       C  0.02126519  0.85730524  0.95524086    -0.22000
C1325       C  0.00062899  0.54567934  0.99393822    -0.17400
C1326       C  0.98151164  0.43270182  0.95153289    -0.17400
C1327       C  0.03305505  0.84460425  0.99155974    -0.17300
C1328       C  0.05352798  0.94194917  0.04329616    -0.17300
H1329       H  0.04158875  0.54840553  0.95682918     0.15600
H1330       H  0.02975250  0.48861813  0.93393687     0.15600
H1331       H  0.00598008  0.88108764  0.05595788     0.15600
H1332       H  0.99324445  0.82971092  0.02817426     0.15600
H1333       H  0.02678366  0.57159182  0.03317190     0.13800
H1334       H  0.01087805  0.52477211  0.06109075     0.13800
H1335       H  0.02018690  0.88899145  0.92781379     0.13800
H1336       H  0.00882236  0.83095075  0.95032620     0.13800
H1337       H  0.96663546  0.47253844  0.98606819     0.27100
H1338       H  0.06702066  0.91475834  0.00548077     0.27100
N1339       N  0.01750089  0.74123262  0.97056466    -0.35700
N1340       N  0.01963809  0.74235516  0.01050794    -0.56200
N1341       N  0.01723348  0.64882496  0.01107231    -0.35700
N1342       N  0.01609184  0.64711608  0.97153704    -0.56200
C1343       C  0.03229200  0.77699657  0.97339250     0.27900
C1344       C  0.03193587  0.72682001  0.95363965     0.27900
C1345       C  0.00199672  0.66517928  0.02713557     0.27900
C1346       C  0.99923853  0.61491307  0.00812927     0.27900
C1347       C  0.03283071  0.77830673  0.00860602     0.36500
C1348       C  0.03110678  0.73017631  0.02812343     0.36500
C1349       C  0.00870756  0.65773086  0.95293099     0.36500
C1350       C  0.00545722  0.61004886  0.97328060     0.36500
C1351       C  0.05742811  0.78430171  0.95831934    -0.20900
C1352       C  0.05603137  0.75384151  0.94559598    -0.20900
C1353       C  0.97399179  0.64160790  0.03455834    -0.20900
C1354       C  0.97124409  0.61069723  0.02214853    -0.20900
C1355       C  0.05487208  0.78786224  0.02482677    -0.22000
C1356       C  0.05278500  0.75804471  0.03737142    -0.22000
C1357       C  0.99236267  0.62731417  0.94281435    -0.22000
C1358       C  0.98911202  0.59805599  0.95571470    -0.22000
C1359       C  0.02946171  0.79989395  0.99106706    -0.17400
C1360       C  0.02103103  0.69207083  0.94389069    -0.17400
C1361       C  0.00468349  0.59007535  0.99167780    -0.17300
C1362       C  0.01740357  0.69703710  0.03727701    -0.17300
H1363       H  0.07607013  0.80852764  0.95695211     0.15600
H1364       H  0.07198652  0.75179223  0.93210158     0.15600
H1365       H  0.95721833  0.64634855  0.04760021     0.15600
H1366       H  0.95100671  0.58770192  0.02331918     0.15600
H1367       H  0.07186656  0.81306678  0.02717931     0.13800
H1368       H  0.06591099  0.75689525  0.05167350     0.13800
H1369       H  0.98288862  0.62632516  0.92769099     0.13800
H1370       H  0.97395759  0.57202875  0.95267599     0.13800
H1371       H  0.99613746  0.72809330  0.97863549     0.27100
H1372       H  0.04134191  0.65880798  0.00393439     0.27100
N1373       N  0.24067843  0.59553288  0.97748227    -0.35700
N1374       N  0.26264239  0.01226764  0.96477209    -0.56200
N1375       N  0.25929937  0.00720633  0.00486744    -0.35700
N1376       N  0.24574391  0.60219358  0.01751290    -0.56200
C1377       C  0.25103882  0.57982374  0.96012692     0.27900
C1378       C  0.25644914  0.63094101  0.97891319     0.27900
C1379       C  0.27323837  0.97330509  0.99985711     0.27900
C1380       C  0.27390139  0.01826140  0.02250134     0.27900
C1381       C  0.25363839  0.02437202  0.94659051     0.36500
C1382       C  0.25571126  0.97426257  0.96542111     0.36500
C1383       C  0.23955699  0.63886678  0.01333729     0.36500
C1384       C  0.23122667  0.59474738  0.03563583     0.36500
C1385       C  0.27376673  0.60549567  0.95017825    -0.20900
C1386       C  0.27792141  0.63719706  0.96216768    -0.20900
C1387       C  0.29741875  0.96313902  0.01449072    -0.20900
C1388       C  0.29757642  0.99116542  0.02878721    -0.20900
C1389       C  0.24088017  0.99357864  0.93543273    -0.22000
C1390       C  0.24144091  0.96240169  0.94732540    -0.22000
C1391       C  0.22082857  0.65459377  0.02910348    -0.22000
C1392       C  0.21607448  0.62720404  0.04314413    -0.22000
C1393       C  0.26142104  0.06144099  0.93907304    -0.17400
C1394       C  0.25029890  0.65690490  0.99504144    -0.17400
C1395       C  0.26312290  0.04978244  0.03408594    -0.17300
C1396       C  0.26370801  0.95167651  0.98241427    -0.17300
H1397       H  0.28559185  0.60193975  0.93558682     0.15600
H1398       H  0.29445909  0.66208172  0.95875112     0.15600
H1399       H  0.31312856  0.93805196  0.01489025     0.15600
H1400       H  0.31300420  0.99127509  0.04246267     0.15600
H1401       H  0.23211779  0.99356418  0.92018132     0.13800
H1402       H  0.23230239  0.93441467  0.94299998     0.13800
H1403       H  0.21085296  0.68258091  0.03029205     0.13800
H1404       H  0.20262643  0.63079814  0.05732929     0.13800
H1405       H  0.21973781  0.58397586  0.98645699     0.27100
H1406       H  0.23791494  0.02053337  0.99778306     0.27100
N1407       N  0.26533276  0.85220231  0.00567855    -0.35700
N1408       N  0.25759830  0.76300586  0.01051595    -0.56200
N1409       N  0.26515687  0.75547768  0.96997689    -0.35700
N1410       N  0.26274861  0.84580997  0.96502726    -0.56200
C1411       C  0.25600891  0.84541202  0.02476019     0.27900
C1412       C  0.25479761  0.88755000  0.00112909     0.27900
C1413       C  0.25089948  0.72028237  0.97427655     0.27900
C1414       C  0.25718154  0.76305177  0.95092034     0.27900
C1415       C  0.27038463  0.77653479  0.02817859     0.36500
C1416       C  0.26436816  0.72559718  0.00946805     0.36500
C1417       C  0.27191047  0.88330847  0.96628936     0.36500
C1418       C  0.27702773  0.83210760  0.94792632     0.36500
C1419       C  0.23950745  0.87693758  0.03248175    -0.20900
C1420       C  0.23736995  0.90245594  0.01756674    -0.20900
C1421       C  0.23282438  0.70609008  0.95758048    -0.20900
C1422       C  0.23767098  0.73227164  0.94287272    -0.20900
C1423       C  0.28479163  0.74721557  0.03849962    -0.22000
C1424       C  0.28167619  0.71557378  0.02663165    -0.22000
C1425       C  0.29212505  0.89337071  0.94968574    -0.22000
C1426       C  0.29494281  0.86140185  0.93805414    -0.22000
C1427       C  0.26657088  0.81385256  0.03602279    -0.17400
C1428       C  0.26315407  0.90710848  0.98295657    -0.17400
C1429       C  0.27080357  0.79486899  0.93994873    -0.17300
C1430       C  0.25519485  0.70123388  0.99286442    -0.17300
H1431       H  0.23010625  0.88176911  0.04741551     0.15600
H1432       H  0.22512207  0.92940967  0.01901083     0.15600
H1433       H  0.21771114  0.67959254  0.95601047     0.15600
H1434       H  0.22763442  0.72904602  0.92789335     0.15600
H1435       H  0.29653873  0.74825773  0.05316179     0.13800
H1436       H  0.29164006  0.68848602  0.03020671     0.13800
H1437       H  0.30447625  0.92054497  0.94647202     0.13800
H1438       H  0.30888265  0.85990424  0.92389527     0.13800
H1439       H  0.28245523  0.83502058  0.99741474     0.27100
H1440       H  0.28325504  0.77225829  0.97859476     0.27100
O1441       O  0.96720754  0.39628554  0.85467692    -0.70800
O1442       O  0.95128793  0.39408017  0.79891226    -0.71100
O1443       O  0.99028510  0.43773027  0.82422920    -0.70900
O1444       O  0.10236834  0.91346409  0.82786965    -0.70900
O1445       O  0.47622362  0.02624078  0.81567482    -0.70900
O1446       O  0.45589825  0.60984643  0.82370886    -0.70900
O1447       O  0.39676197  0.58652176  0.80172389    -0.70800
O1448       O  0.42371309  0.58190493  0.85580574    -0.71000
V1449       V  0.95820693  0.39543226  0.82679537     1.35200
V1450       V  0.41064752  0.58301305  0.82873857     1.35200
C1451       C  0.94608047  0.41380432  0.86638235     0.78400
C1452       C  0.40734282  0.56233162  0.78931329     0.78500
C1453       C  0.97678828  0.46939405  0.82589026     0.78300
C1454       C  0.06765435  0.90839571  0.82605043     0.78300
O1455       O  0.06589766  0.68629818  0.84898277    -0.70800
O1456       O  0.07492868  0.68192877  0.79307781    -0.71100
O1457       O  0.07031621  0.73646600  0.82061742    -0.70900
O1458       O  0.07062629  0.63129499  0.82181470    -0.70900
O1459       O  0.52125620  0.72488649  0.81320898    -0.70900
O1460       O  0.49166608  0.82410728  0.81530266    -0.70900
O1461       O  0.50776204  0.77565828  0.78639769    -0.70800
O1462       O  0.50496552  0.77378161  0.84231624    -0.71000
V1463       V  0.06932052  0.68395334  0.82099780     1.35200
V1464       V  0.50759972  0.77476338  0.81430374     1.35200
C1465       C  0.03441475  0.68573474  0.85746830     0.78400
C1466       C  0.53779193  0.78297726  0.77721236     0.78500
C1467       C  0.51614525  0.85015306  0.81545319     0.78300
C1468       C  0.55507943  0.71712773  0.81472888     0.78300
O1469       O  0.26331849  0.07977646  0.84212583    -0.70800
O1470       O  0.27746506  0.07386316  0.78642390    -0.71100
O1471       O  0.27106054  0.02487210  0.81560776    -0.70900
O1472       O  0.21005910  0.58874954  0.82769663    -0.70900
O1473       O  0.24566268  0.54109230  0.82763257    -0.70900
O1474       O  0.33130060  0.02875964  0.81937867    -0.70900
O1475       O  0.33722180  0.07770250  0.79033077    -0.70800
O1476       O  0.32319790  0.08311763  0.84640378    -0.71000
V1477       V  0.27173199  0.07713415  0.81434902     1.35200
V1478       V  0.32937996  0.08083320  0.81824419     1.35200
C1479       C  0.29066416  0.08085020  0.85387168     0.78400
C1480       C  0.30964109  0.07441701  0.77869596     0.78500
C1481       C  0.30154969  0.00926366  0.81767278     0.78300
C1482       C  0.24207667  0.57564816  0.82623104     0.78300
O1483       O  0.27191999  0.77679940  0.84209033    -0.70800
O1484       O  0.28485430  0.78262845  0.78666681    -0.71100
O1485       O  0.28007206  0.72712273  0.81248177    -0.70900
O1486       O  0.27769228  0.83190278  0.81632979    -0.70900
O1487       O  0.33813462  0.83501637  0.81883380    -0.70900
O1488       O  0.33992703  0.73002594  0.81745095    -0.70900
O1489       O  0.34468004  0.78433420  0.78959892    -0.70800
O1490       O  0.33145981  0.78235713  0.84637601    -0.71000
V1491       V  0.27990856  0.77953806  0.81443153     1.35200
V1492       V  0.33753405  0.78265144  0.81798161     1.35200
C1493       C  0.29889141  0.78021807  0.85397598     0.78400
C1494       C  0.31636229  0.78565029  0.77836197     0.78500
C1495       C  0.31019812  0.71080593  0.81483677     0.78300
C1496       C  0.30769899  0.85112575  0.81802535     0.78300
O1497       O  0.52932369  0.02571728  0.62846046    -0.70800
O1498       O  0.52274425  0.03494143  0.68427383    -0.71100
O1499       O  0.48773059  0.06575306  0.65381784    -0.70900
O1500       O  0.14043363  0.91123051  0.66109871    -0.70900
O1501       O  0.98320550  0.44718762  0.66790298    -0.70900
O1502       O  0.36855893  0.61859359  0.66380243    -0.70900
O1503       O  0.40548475  0.58561225  0.69314328    -0.70800
O1504       O  0.40272552  0.57458527  0.63663732    -0.71000
V1505       V  0.52688776  0.03168459  0.65631149     1.35200
V1506       V  0.40318092  0.57982485  0.66488941     1.35200
C1507       C  0.38189738  0.54927006  0.62861318     0.78400
C1508       C  0.38299431  0.56664209  0.70388277     0.78500
C1509       C  0.33428674  0.60943848  0.66399530     0.78300
C1510       C  0.99141148  0.41334503  0.66708278     0.78300
O1511       O  0.55401401  0.79989026  0.62532209    -0.70800
O1512       O  0.55738930  0.80145907  0.68119509    -0.71100
O1513       O  0.10247163  0.72929961  0.65927923    -0.70900
O1514       O  0.53527355  0.84909984  0.65373278    -0.70900
O1515       O  0.47992136  0.82212987  0.65377048    -0.70900
O1516       O  0.10117201  0.66881706  0.65622043    -0.70900
O1517       O  0.50118578  0.77752125  0.68213259    -0.70800
O1518       O  0.49929302  0.77265236  0.62619957    -0.71000
V1519       V  0.55451176  0.80048201  0.65326173     1.35200
V1520       V  0.50114924  0.77542976  0.65416717     1.35200
C1521       C  0.52658616  0.78506476  0.61608523     0.78400
C1522       C  0.52994527  0.78953840  0.69131789     0.78500
C1523       C  0.11948654  0.69947940  0.65705174     0.78300
C1524       C  0.50034770  0.85150603  0.65365982     0.78300
O1525       O  0.13893198  0.53987793  0.64138761    -0.70800
O1526       O  0.14254405  0.54516002  0.69741713    -0.71100
O1527       O  0.16980703  0.58813346  0.66816052    -0.70900
O1528       O  0.11224668  0.49793393  0.67087356    -0.70900
O1529       O  0.33272110  0.99465341  0.65763802    -0.70900
O1530       O  0.38573149  0.08696744  0.65597390    -0.70900
O1531       O  0.35482444  0.04631676  0.68479030    -0.70800
O1532       O  0.36348384  0.03592569  0.62879293    -0.71000
V1533       V  0.14187977  0.54216572  0.66941873     1.35200
V1534       V  0.35824699  0.04164821  0.65674293     1.35200
C1535       C  0.16319592  0.52346271  0.63118964     0.78400
C1536       C  0.32795654  0.06326454  0.69252116     0.78500
C1537       C  0.36980932  0.11702407  0.65281167     0.78300
C1538       C  0.29772344  0.99373737  0.65659843     0.78300
O1539       O  0.29587141  0.83248658  0.62625044    -0.70800
O1540       O  0.30207012  0.83272533  0.68308038    -0.71100
O1541       O  0.33992512  0.86825713  0.65390420    -0.70900
O1542       O  0.25799816  0.79954362  0.65539134    -0.70900
O1543       O  0.29508559  0.75302137  0.65474052    -0.70900
O1544       O  0.37731816  0.82210667  0.65154676    -0.70900
O1545       O  0.34055708  0.78775241  0.68119663    -0.70800
O1546       O  0.33226933  0.78565273  0.62527961    -0.71000
V1547       V  0.29982936  0.83251802  0.65467109     1.35200
V1548       V  0.33576233  0.78823402  0.65322430     1.35200
C1549       C  0.31137369  0.80705449  0.61620877     0.78400
C1550       C  0.32182720  0.80945166  0.69185454     0.78500
C1551       C  0.37249699  0.85682163  0.65238652     0.78300
C1552       C  0.26245318  0.76496674  0.65491955     0.78300
C1553       C  0.48176666  0.88694277  0.65307688    -0.04400
C1554       C  0.46414758  0.89191728  0.63489767    -0.01500
C1555       C  0.42522008  0.88608496  0.63414424     0.03500
C1556       C  0.40501081  0.88273803  0.65192397    -0.04400
C1557       C  0.42261824  0.89253604  0.66992926    -0.01500
C1558       C  0.46187130  0.89480529  0.67051214     0.03500
C1559       C  0.48598520  0.88998884  0.61689038     0.38100
C1560       C  0.40104922  0.89363205  0.68805636     0.38100
C1561       C  0.48077904  0.89241329  0.68926075     0.36500
C1562       C  0.40742781  0.87656013  0.61549396     0.36500
N1563       N  0.49568061  0.88894324  0.70416828    -0.38300
N1564       N  0.39413251  0.86819345  0.60047892    -0.38300
N1565       N  0.38397014  0.89455808  0.70256006    -0.37700
N1566       N  0.50289869  0.88778801  0.60237805    -0.37700
C1567       C  0.22961847  0.73965839  0.65394280    -0.04400
C1568       C  0.20640378  0.74006711  0.63720762    -0.01500
C1569       C  0.17281249  0.71902038  0.63696706     0.03500
C1570       C  0.15982215  0.70223497  0.65434856    -0.04400
C1571       C  0.18322210  0.70075093  0.67087960    -0.01500
C1572       C  0.21861832  0.71901692  0.67057727     0.03500
C1573       C  0.21411514  0.76584227  0.62134230     0.38100
C1574       C  0.16963700  0.68309541  0.68863765     0.38100
C1575       C  0.24139039  0.72090054  0.68820923     0.36500
C1576       C  0.14996028  0.71725597  0.61933071     0.36500
N1577       N  0.25948016  0.72276182  0.70229738    -0.38300
N1578       N  0.13218982  0.71557643  0.60513144    -0.38300
N1579       N  0.15892127  0.66904171  0.70287657    -0.37700
N1580       N  0.21870092  0.78702491  0.60883186    -0.37700
C1581       C  0.30493982  0.63660184  0.66387439    -0.04400
C1582       C  0.45093703  0.14619214  0.66779565    -0.01500
C1583       C  0.41470151  0.15990550  0.66670420     0.03500
C1584       C  0.22915872  0.62061715  0.66703581    -0.04400
C1585       C  0.24406394  0.63002666  0.64849807    -0.01500
C1586       C  0.28287383  0.63626394  0.64674544     0.03500
C1587       C  0.47007008  0.14823364  0.68641737     0.38100
C1588       C  0.22062546  0.62697136  0.63115973     0.38100
C1589       C  0.30053772  0.63362467  0.62757146     0.36500
C1590       C  0.39583450  0.17352254  0.68417029     0.36500
N1591       N  0.31422768  0.63116810  0.61215448    -0.38300
N1592       N  0.38082166  0.18409596  0.69821245    -0.38300
N1593       N  0.20178609  0.62495796  0.61734991    -0.37700
N1594       N  0.48295409  0.15111107  0.70195654    -0.37700
C1595       C  0.10346995  0.43309625  0.67092829    -0.04400
C1596       C  0.08961156  0.42022675  0.65255168    -0.01500
C1597       C  0.05259394  0.40630305  0.65124417     0.03500
C1598       C  0.03059817  0.40438385  0.66844261    -0.04400
C1599       C  0.22869393  0.92729227  0.67734277    -0.01500
C1600       C  0.26385460  0.94566412  0.67583349     0.03500
C1601       C  0.11092930  0.42763222  0.63473292     0.38100
C1602       C  0.21335709  0.91823107  0.69650297     0.38100
C1603       C  0.28535364  0.95535892  0.69336717     0.36500
C1604       C  0.03569372  0.39981408  0.63206871     0.36500
N1605       N  0.30258740  0.96308053  0.70733606    -0.38300
N1606       N  0.02282944  0.39517239  0.61657326    -0.38300
N1607       N  0.20185419  0.91103947  0.71198214    -0.37700
N1608       N  0.12766706  0.43387869  0.62048400    -0.37700
C1609       C  0.31870601  0.79194075  0.75606735    -0.04400
C1610       C  0.35282400  0.79043781  0.74531505    -0.01500
C1611       C  0.35414089  0.79734208  0.72464531     0.03500
C1612       C  0.32152093  0.80572151  0.71408850    -0.04400
C1613       C  0.28766306  0.80740633  0.72467608    -0.01500
C1614       C  0.28611224  0.80063949  0.74522473     0.03500
C1615       C  0.38687096  0.78116107  0.75521889     0.38100
C1616       C  0.25346928  0.81454236  0.71423953     0.38100
C1617       C  0.25002300  0.80271971  0.75485327     0.36500
C1618       C  0.38959619  0.79684662  0.71429442     0.36500
N1619       N  0.22105338  0.80428499  0.76231840    -0.38300
N1620       N  0.41779924  0.79673871  0.70596233    -0.38300
N1621       N  0.22617761  0.82006596  0.70595246    -0.37700
N1622       N  0.41422572  0.77372875  0.76293930    -0.37700
C1623       C  0.30274385  0.96895335  0.81775965    -0.04400
C1624       C  0.32269269  0.95055243  0.80281435    -0.01500
C1625       C  0.32551265  0.91181866  0.80333093     0.03500
C1626       C  0.30732781  0.89167141  0.81846023    -0.04400
C1627       C  0.28794474  0.91027477  0.83358121    -0.01500
C1628       C  0.28523703  0.94903904  0.83309934     0.03500
C1629       C  0.33861043  0.97129419  0.78641421     0.38100
C1630       C  0.27303829  0.89011913  0.85033936     0.38100
C1631       C  0.26515972  0.96851409  0.84855408     0.36500
C1632       C  0.34669047  0.89275525  0.78819127     0.36500
N1633       N  0.24906856  0.98401898  0.86082425    -0.38300
N1634       N  0.36377896  0.87768175  0.77617169    -0.38300
N1635       N  0.26160520  0.87504474  0.86414244    -0.37700
N1636       N  0.35080438  0.98787001  0.77324889    -0.37700
C1637       C  0.27381118  0.60088500  0.82208978    -0.04400
C1638       C  0.29239899  0.61940818  0.83784444    -0.01500
C1639       C  0.31134713  0.65369638  0.83452263     0.03500
C1640       C  0.30915199  0.67009800  0.81584552    -0.04400
C1641       C  0.29531302  0.64898039  0.79960099    -0.01500
C1642       C  0.27844217  0.61367581  0.80269287     0.03500
C1643       C  0.28835098  0.60538857  0.85771202     0.38100
C1644       C  0.29544732  0.66495436  0.78009933     0.38100
C1645       C  0.26289150  0.59212024  0.78619070     0.36500
C1646       C  0.32946321  0.67377064  0.85075769     0.36500
N1647       N  0.25100994  0.57505631  0.77285122    -0.38300
N1648       N  0.34415874  0.68927938  0.86382142    -0.38300
N1649       N  0.29529882  0.67765233  0.76454138    -0.37700
N1650       N  0.28474370  0.59441325  0.87357130    -0.37700
C1651       C  0.31466653  0.07127866  0.75651845    -0.04400
C1652       C  0.15856267  0.56198330  0.76080050    -0.01500
C1653       C  0.15419786  0.56005843  0.74009767     0.03500
C1654       C  0.32352464  0.06635805  0.71447062    -0.04400
C1655       C  0.35363948  0.07849521  0.72661905    -0.01500
C1656       C  0.34898260  0.08225253  0.74732725     0.03500
C1657       C  0.15022731  0.59636807  0.77123095     0.38100
C1658       C  0.38967885  0.08741612  0.71782813     0.38100
C1659       C  0.37981770  0.09800367  0.75892546     0.36500
C1660       C  0.13422727  0.58906364  0.73059773     0.36500
N1661       N  0.40449810  0.11065335  0.76807984    -0.38300
N1662       N  0.11695765  0.61165108  0.72339005    -0.38300
N1663       N  0.41869169  0.09394898  0.71097266    -0.37700
N1664       N  0.14376613  0.62395103  0.77942435    -0.37700
C1665       C  0.53805100  0.78337286  0.75518600    -0.04400
C1666       C  0.51429110  0.75821453  0.74442911    -0.01500
C1667       C  0.51020468  0.76152140  0.72389114     0.03500
C1668       C  0.53197956  0.78838986  0.71339665    -0.04400
C1669       C  0.07801388  0.70674055  0.73012930    -0.01500
C1670       C  0.07718610  0.70395499  0.75088665     0.03500
C1671       C  0.49613535  0.72688001  0.75423689     0.38100
C1672       C  0.10597320  0.73108853  0.72093754     0.38100
C1673       C  0.10414883  0.72583038  0.76257628     0.36500
C1674       C  0.48384972  0.73652282  0.71362448     0.36500
N1675       N  0.12580119  0.74319624  0.77183641    -0.38300
N1676       N  0.46283405  0.71719033  0.70505401    -0.38300
N1677       N  0.12822571  0.75062638  0.71366427    -0.37700
N1678       N  0.48241597  0.70142020  0.76199186    -0.37700
C1679       C  0.49950352  0.96586911  0.81953631    -0.04400
C1680       C  0.05963802  0.84787730  0.84216392    -0.01500
C1681       C  0.05336751  0.80932242  0.84049180     0.03500
C1682       C  0.50607965  0.88879747  0.81815842    -0.04400
C1683       C  0.48180928  0.90539262  0.80495100    -0.01500
C1684       C  0.47795206  0.94419526  0.80587379     0.03500
C1685       C  0.07538415  0.86416658  0.86020889     0.38100
C1686       C  0.46332013  0.88307735  0.78956188     0.38100
C1687       C  0.45384795  0.96181973  0.79203388     0.36500
C1688       C  0.06118859  0.78614768  0.85716420     0.36500
N1689       N  0.43464466  0.97594141  0.78100014    -0.38300
N1690       N  0.06754005  0.76848780  0.87074457    -0.38300
N1691       N  0.44892405  0.86509002  0.77725017    -0.37700
N1692       N  0.08810264  0.87679934  0.87460532    -0.37700
C1693       C  0.52106420  0.61276717  0.81958950    -0.04400
C1694       C  0.53621749  0.62201014  0.80109462    -0.01500
C1695       C  0.55788443  0.65526129  0.79944885     0.03500
C1696       C  0.56378971  0.67809487  0.81635597    -0.04400
C1697       C  0.02629189  0.55895310  0.84134572    -0.01500
C1698       C  0.00761175  0.52412149  0.84241732     0.03500
C1699       C  0.52583415  0.59993292  0.78371258     0.38100
C1700       C  0.03131231  0.58188397  0.85905887     0.38100
C1701       C  0.99376377  0.51108557  0.86127157     0.36500
C1702       C  0.56855838  0.66902391  0.78020691     0.36500
N1703       N  0.98307056  0.50140437  0.87651178    -0.38300
N1704       N  0.57682013  0.67981143  0.76475972    -0.38300
N1705       N  0.03515629  0.59959353  0.87338060    -0.37700
N1706       N  0.51760204  0.58206691  0.76991788    -0.37700
C1707       C  0.39803789  0.56479776  0.76782008    -0.04400
C1708       C  0.40307900  0.59866196  0.75764423    -0.01500
C1709       C  0.39841026  0.59958026  0.73687125     0.03500
C1710       C  0.38531846  0.56741174  0.72617016    -0.04400
C1711       C  0.11352408  0.92658119  0.73615433    -0.01500
C1712       C  0.11501893  0.93040979  0.75709874     0.03500
C1713       C  0.41291478  0.63261875  0.76860737     0.38100
C1714       C  0.12126699  0.89102585  0.72686389     0.38100
C1715       C  0.12359315  0.89859298  0.76889094     0.36500
C1716       C  0.40541832  0.63423135  0.72675506     0.36500
N1717       N  0.13025088  0.87317666  0.77832470    -0.38300
N1718       N  0.41057079  0.66203859  0.71869241    -0.38300
N1719       N  0.12733727  0.86248976  0.71956634    -0.37700
N1720       N  0.41975153  0.65949018  0.77777025    -0.37700
C1721       C  0.27752005  0.78929150  0.91800736    -0.04400
C1722       C  0.31248606  0.77828024  0.91080638    -0.01500
C1723       C  0.31995133  0.77628260  0.89019317     0.03500
C1724       C  0.29158544  0.78266436  0.87618304    -0.04400
C1725       C  0.25580312  0.79223710  0.88371867    -0.01500
C1726       C  0.24949119  0.79670409  0.90430702     0.03500
C1727       C  0.34104663  0.76905955  0.92475503     0.38100
C1728       C  0.22508631  0.79883909  0.87054158     0.38100
C1729       C  0.21400495  0.80957466  0.91152577     0.36500
C1730       C  0.35716931  0.76765326  0.88369560     0.36500
N1731       N  0.18588312  0.82011098  0.91735649    -0.38300
N1732       N  0.38704373  0.76082866  0.87871119    -0.38300
N1733       N  0.20040018  0.80440215  0.86021530    -0.37700
N1734       N  0.36375015  0.76134562  0.93585981    -0.37700
C1735       C  0.26818575  0.06550590  0.91693525    -0.04400
C1736       C  0.19975807  0.56789858  0.92209074    -0.01500
C1737       C  0.18850719  0.56366514  0.90220059     0.03500
C1738       C  0.28426512  0.07732898  0.87581408    -0.04400
C1739       C  0.30579540  0.05321413  0.88705825    -0.01500
C1740       C  0.29818732  0.04777962  0.90740898     0.03500
C1741       C  0.18262970  0.59531513  0.93483160     0.38100
C1742       C  0.33481859  0.03232407  0.87749664     0.38100
C1743       C  0.32137538  0.02354379  0.91850069     0.36500
C1744       C  0.15860389  0.58606408  0.89536707     0.36500
N1745       N  0.33965651  0.00384247  0.92725723    -0.38300
N1746       N  0.13438959  0.60368186  0.89009934    -0.38300
N1747       N  0.35776242  0.01545008  0.86982584    -0.37700
N1748       N  0.16956011  0.61706850  0.94528041    -0.37700
C1749       C  0.02451401  0.69099359  0.92178068    -0.04400
C1750       C  0.05919314  0.68490130  0.91273966    -0.01500
C1751       C  0.06294168  0.68534891  0.89199548     0.03500
C1752       C  0.03105155  0.68828200  0.87972710    -0.04400
C1753       C  0.49283580  0.80338198  0.88240566    -0.01500
C1754       C  0.48771675  0.80722543  0.90303061     0.03500
C1755       C  0.09137540  0.67890576  0.92497551     0.38100
C1756       C  0.46277602  0.81281619  0.86938246     0.38100
C1757       C  0.45173713  0.81711838  0.91093867     0.36500
C1758       C  0.10020356  0.68437386  0.88367645     0.36500
N1759       N  0.42305918  0.82507794  0.91724489    -0.38300
N1760       N  0.13008023  0.68443114  0.87718301    -0.38300
N1761       N  0.43907590  0.82079502  0.85893626    -0.37700
N1762       N  0.11692748  0.67457455  0.93487638    -0.37700
C1763       C  0.97310596  0.42833995  0.92957795    -0.04400
C1764       C  0.46805672  0.07199862  0.90803961    -0.01500
C1765       C  0.47047013  0.07722235  0.88736960     0.03500
C1766       C  0.95397608  0.41738986  0.88846742    -0.04400
C1767       C  0.98157741  0.39597197  0.89747016    -0.01500
C1768       C  0.99160357  0.40210112  0.91755965     0.03500
C1769       C  0.43234559  0.07357197  0.91806738     0.38100
C1770       C  0.99891994  0.36618098  0.88647976     0.38100
C1771       C  0.02133537  0.38119784  0.92587828     0.36500
C1772       C  0.43718113  0.08728920  0.87700930     0.36500
N1773       N  0.04490605  0.36430880  0.93249353    -0.38300
N1774       N  0.41055339  0.09581012  0.86895086    -0.38300
N1775       N  0.01250768  0.34213792  0.87781650    -0.37700
N1776       N  0.40387813  0.07452055  0.92609621    -0.37700
C1777       C  0.29172416  0.78146812  0.55371901    -0.04400
C1778       C  0.28761951  0.75362878  0.56803512    -0.01500
C1779       C  0.29403352  0.76232315  0.58819291     0.03500
C1780       C  0.30329835  0.79939711  0.59463713    -0.04400
C1781       C  0.30458555  0.82776084  0.58041096    -0.01500
C1782       C  0.29958825  0.81873029  0.56005171     0.03500
C1783       C  0.27703845  0.71574851  0.56193187     0.38100
C1784       C  0.31201861  0.86611095  0.58652936     0.38100
C1785       C  0.30260058  0.84779334  0.54552694     0.36500
C1786       C  0.28915806  0.73307808  0.60248464     0.36500
N1787       N  0.30488455  0.87098768  0.53391617    -0.38300
N1788       N  0.28463707  0.71009106  0.61404270    -0.38300
N1789       N  0.31806182  0.89686048  0.59124274    -0.37700
N1790       N  0.26841530  0.68557699  0.55708635    -0.37700
C1791       C  0.33568796  0.02450346  0.55413579    -0.04400
C1792       C  0.13210247  0.54026125  0.57749763    -0.01500
C1793       C  0.13503032  0.54285893  0.59835113     0.03500
C1794       C  0.33953689  0.04038382  0.59550032    -0.04400
C1795       C  0.35683554  0.00874436  0.58721006    -0.01500
C1796       C  0.35449383  0.00071990  0.56672755     0.03500
C1797       C  0.10589883  0.56300792  0.56740985     0.38100
C1798       C  0.37620313  0.98352653  0.59968690     0.38100
C1799       C  0.37039122  0.96715826  0.55861904     0.36500
C1800       C  0.11176332  0.56869473  0.60892328     0.36500
N1801       N  0.38283434  0.94028226  0.55215275    -0.38300
N1802       N  0.09348750  0.58909863  0.61769168    -0.38300
N1803       N  0.39182486  0.96352884  0.60963849    -0.37700
N1804       N  0.08469052  0.58092399  0.55945846    -0.37700
C1805       C  0.53342112  0.76807990  0.55263803    -0.04400
C1806       C  0.02956626  0.68675985  0.56596634    -0.01500
C1807       C  0.03388666  0.68159463  0.58647242     0.03500
C1808       C  0.52728838  0.78095096  0.59399684    -0.04400
C1809       C  0.55367537  0.80196784  0.58254006    -0.01500
C1810       C  0.55630005  0.79574933  0.56198615     0.03500
C1811       C  0.01892869  0.65532624  0.55315405     0.38100
C1812       C  0.57818328  0.83047222  0.59156895     0.38100
C1813       C  0.58234311  0.81820454  0.55031573     0.36500
C1814       C  0.02945832  0.64400100  0.59374907     0.36500
N1815       N  0.60305392  0.83610047  0.54099363    -0.38300
N1816       N  0.02545019  0.61373393  0.59915213    -0.38300
N1817       N  0.59797928  0.85309928  0.59865805    -0.37700
N1818       N  0.01023652  0.63034647  0.54293813    -0.37700
C1819       C  0.39147728  0.51789632  0.56642632    -0.04400
C1820       C  0.09981623  0.94235303  0.56997196    -0.01500
C1821       C  0.10058025  0.93696434  0.59068741     0.03500
C1822       C  0.38460108  0.53906537  0.60704859    -0.04400
C1823       C  0.39015473  0.56646233  0.59246311    -0.01500
C1824       C  0.39155939  0.55594694  0.57223767     0.03500
C1825       C  0.10824629  0.91196717  0.55649785     0.38100
C1826       C  0.39447736  0.60551251  0.59808504     0.38100
C1827       C  0.39276611  0.58432799  0.55727934     0.36500
C1828       C  0.10671666  0.90010534  0.59797351     0.36500
N1829       N  0.39336351  0.60683781  0.54527981    -0.38300
N1830       N  0.11169554  0.87054226  0.60364464    -0.38300
N1831       N  0.39848577  0.63672332  0.60243393    -0.37700
N1832       N  0.11554236  0.88796353  0.54570916    -0.37700
C1833       C  0.30739145  0.78732425  0.37823848    -0.04400
C1834       C  0.28280366  0.80650637  0.39116563    -0.01500
C1835       C  0.27661214  0.79491982  0.41095623     0.03500
C1836       C  0.29377211  0.76322670  0.41842815    -0.04400
C1837       C  0.31727651  0.74328776  0.40544500    -0.01500
C1838       C  0.32457563  0.75545798  0.38589076     0.03500
C1839       C  0.26270666  0.83801255  0.38430021     0.38100
C1840       C  0.33268666  0.70861099  0.41164853     0.38100
C1841       C  0.34915080  0.73364490  0.37360766     0.36500
C1842       C  0.25239082  0.81613829  0.42373506     0.36500
N1843       N  0.36859918  0.71586909  0.36393744    -0.38300
N1844       N  0.23287736  0.83299836  0.43383436    -0.38300
N1845       N  0.34507180  0.68081036  0.41626655    -0.37700
N1846       N  0.24615880  0.86297676  0.37902901    -0.37700
C1847       C  0.32825723  0.00546299  0.37383788    -0.04400
C1848       C  0.13844643  0.54128579  0.39998896    -0.01500
C1849       C  0.14073787  0.53306886  0.42023562     0.03500
C1850       C  0.32962871  0.99366952  0.41541831    -0.04400
C1851       C  0.32667338  0.96307348  0.40219915    -0.01500
C1852       C  0.32434051  0.96884866  0.38167047     0.03500
C1853       C  0.13490222  0.57992198  0.39460943     0.38100
C1854       C  0.32722726  0.92552162  0.40975389     0.38100
C1855       C  0.31751412  0.93651570  0.36897036     0.36500
C1856       C  0.13843161  0.56287743  0.43493309     0.36500
N1857       N  0.31138930  0.91041695  0.35911441    -0.38300
N1858       N  0.13647023  0.58654770  0.44666368    -0.38300
N1859       N  0.32805283  0.89563154  0.41578571    -0.37700
N1860       N  0.13233826  0.61083967  0.39048246    -0.37700
C1861       C  0.53660961  0.76596239  0.37315415    -0.04400
C1862       C  0.50841529  0.77870704  0.38579533    -0.01500
C1863       C  0.51290882  0.77763216  0.40637279     0.03500
C1864       C  0.54075135  0.75571495  0.41465038    -0.04400
C1865       C  0.04234144  0.70459541  0.41255088    -0.01500
C1866       C  0.04700242  0.69706315  0.39222116     0.03500
C1867       C  0.47406545  0.79170946  0.37772111     0.38100
C1868       C  0.04056146  0.67404899  0.42632529     0.38100
C1869       C  0.04858547  0.65865096  0.38557220     0.36500
C1870       C  0.48954140  0.80036017  0.41884160     0.36500
N1871       N  0.04972639  0.62797678  0.38023095    -0.38300
N1872       N  0.47105397  0.81888855  0.42864670    -0.38300
N1873       N  0.03904372  0.64964850  0.43724537    -0.37700
N1874       N  0.44617463  0.80058988  0.37114666    -0.37700
C1875       C  0.48487554  0.88415740  0.32773159    -0.04400
C1876       C  0.46487176  0.89888258  0.31210693    -0.01500
C1877       C  0.42579412  0.89828124  0.31316264     0.03500
C1878       C  0.40808420  0.88491098  0.33026934    -0.04400
C1879       C  0.42883586  0.88274183  0.34774220    -0.01500
C1880       C  0.46807797  0.88434640  0.34650317     0.03500
C1881       C  0.48361017  0.90857774  0.29393704     0.38100
C1882       C  0.40988552  0.87582605  0.36628860     0.38100
C1883       C  0.49093945  0.87950865  0.36371299     0.36500
C1884       C  0.40394965  0.90632717  0.29596844     0.36500
N1885       N  0.50947935  0.87587930  0.37740842    -0.38300
N1886       N  0.38660747  0.91284008  0.28221682    -0.38300
N1887       N  0.39468687  0.87034874  0.38110086    -0.37700
N1888       N  0.49725169  0.91729719  0.27917431    -0.37700
C1889       C  0.15757503  0.72808412  0.31371789    -0.04400
C1890       C  0.17255316  0.74022422  0.29559324    -0.01500
C1891       C  0.21089709  0.74882623  0.29414129     0.03500
C1892       C  0.23353068  0.74599497  0.31084870    -0.04400
C1893       C  0.21943016  0.72899265  0.32799765    -0.01500
C1894       C  0.18115996  0.72047771  0.32958046     0.03500
C1895       C  0.14867427  0.74403447  0.27860021     0.38100
C1896       C  0.24393119  0.72171881  0.34429622     0.38100
C1897       C  0.16572476  0.70634572  0.34795461     0.36500
C1898       C  0.22734193  0.76045760  0.27559142     0.36500
N1899       N  0.15321630  0.69526284  0.36257243    -0.38300
N1900       N  0.24063697  0.76889404  0.26068117    -0.38300
N1901       N  0.26304504  0.71502488  0.35734073    -0.37700
N1902       N  0.12977681  0.74705422  0.26498719    -0.37700
C1903       C  0.60262496  0.02989119  0.37525558    -0.04400
C1904       C  0.60351519  0.99575812  0.38560495    -0.01500
C1905       C  0.59812026  0.99498749  0.40633230     0.03500
C1906       C  0.59283661  0.02809785  0.41738981    -0.04400
C1907       C  0.88501164  0.51142262  0.41553060    -0.01500
C1908       C  0.88123904  0.50264798  0.39512720     0.03500
C1909       C  0.60897675  0.96075759  0.37517006     0.38100
C1910       C  0.88230423  0.54970955  0.42247260     0.38100
C1911       C  0.87451621  0.53270638  0.38171196     0.36500
C1912       C  0.59855831  0.95980024  0.41651443     0.36500
N1913       N  0.86958840  0.55679034  0.37103735    -0.38300
N1914       N  0.59898784  0.93187761  0.42473907    -0.38300
N1915       N  0.87990908  0.58023170  0.42796827    -0.37700
N1916       N  0.61321587  0.93263717  0.36700709    -0.37700
C1917       C  0.42976747  0.99969718  0.30969704    -0.04400
C1918       C  0.26486757  0.52003887  0.34634438    -0.01500
C1919       C  0.30366545  0.52330283  0.34622936     0.03500
C1920       C  0.50741988  0.00575553  0.31035757    -0.04400
C1921       C  0.48833730  0.01416071  0.29300808    -0.01500
C1922       C  0.44933459  0.01125672  0.29270500     0.03500
C1923       C  0.24428013  0.53092290  0.36390102     0.38100
C1924       C  0.50873522  0.02687694  0.27570684     0.38100
C1925       C  0.42931875  0.02268832  0.27542341     0.36500
C1926       C  0.32297525  0.54012629  0.36314099     0.36500
N1927       N  0.41372103  0.03220283  0.26161913    -0.38300
N1928       N  0.33754151  0.55411341  0.37670268    -0.38300
N1929       N  0.52475097  0.03698523  0.26183627    -0.37700
N1930       N  0.22817375  0.53973850  0.37793815    -0.37700
C1931       C  0.14381601  0.01658317  0.32428486    -0.04400
C1932       C  0.15599485  0.03529283  0.30720405    -0.01500
C1933       C  0.19293172  0.04951605  0.30615703     0.03500
C1934       C  0.21657159  0.04561810  0.32234183    -0.04400
C1935       C  0.01811718  0.55169102  0.34786308    -0.01500
C1936       C  0.98115115  0.53794510  0.34810582     0.03500
C1937       C  0.13268455  0.03597058  0.28992911     0.38100
C1938       C  0.04093130  0.54801444  0.36529740     0.38100
C1939       C  0.96747621  0.52001332  0.36581023     0.36500
C1940       C  0.20808532  0.06362309  0.28776566     0.36500
N1941       N  0.95971274  0.50576047  0.38047706    -0.38300
N1942       N  0.22034630  0.07464032  0.27308482    -0.38300
N1943       N  0.05790072  0.54436971  0.37953329    -0.37700
N1944       N  0.11507639  0.03750450  0.27577417    -0.37700
C1945       C  0.27569499  0.82054124  0.05767823    -0.04400
C1946       C  0.31325361  0.82135777  0.06404845    -0.01500
C1947       C  0.32213361  0.82423282  0.08440085     0.03500
C1948       C  0.29405073  0.83010202  0.09872676    -0.04400
C1949       C  0.25658338  0.83138385  0.09215606    -0.01500
C1950       C  0.24733728  0.82454995  0.07204130     0.03500
C1951       C  0.34295442  0.81858456  0.04956852     0.38100
C1952       C  0.22712374  0.83749283  0.10639505     0.38100
C1953       C  0.20850380  0.82071248  0.06623507     0.36500
C1954       C  0.36051502  0.82196342  0.09045887     0.36500
N1955       N  0.17753286  0.81786081  0.06157714    -0.38300
N1956       N  0.39116560  0.82014535  0.09534328    -0.38300
N1957       N  0.20451579  0.84205277  0.11830638    -0.37700
N1958       N  0.36660350  0.81628424  0.03800951    -0.37700
C1959       C  0.32564154  0.84632696  0.21825118    -0.04400
C1960       C  0.35831593  0.83598057  0.22810892    -0.01500
C1961       C  0.35873508  0.83121808  0.24893903     0.03500
C1962       C  0.32646482  0.83710899  0.26060538    -0.04400
C1963       C  0.29463304  0.85027222  0.25094519    -0.01500
C1964       C  0.29461243  0.85586615  0.23021573     0.03500
C1965       C  0.39269268  0.83358033  0.21701916     0.38100
C1966       C  0.26094854  0.85711320  0.26215934     0.38100
C1967       C  0.26237407  0.87215350  0.22149292     0.36500
C1968       C  0.39320044  0.82183980  0.25839582     0.36500
N1969       N  0.23684279  0.88600729  0.21483491    -0.38300
N1970       N  0.42086559  0.81461505  0.26586293    -0.38300
N1971       N  0.23398429  0.86239422  0.27103238    -0.37700
N1972       N  0.42017657  0.83273432  0.20808829    -0.37700
C1973       C  0.29324823  0.05052910  0.09613108    -0.04400
C1974       C  0.18656217  0.54956111  0.09715502    -0.01500
C1975       C  0.19469711  0.54572961  0.07672411     0.03500
C1976       C  0.27276502  0.05081328  0.05556456    -0.04400
C1977       C  0.30303798  0.07359482  0.06249682    -0.01500
C1978       C  0.31320627  0.07363558  0.08262722     0.03500
C1979       C  0.15301670  0.53132064  0.10496185     0.38100
C1980       C  0.32408148  0.09675100  0.04873573     0.38100
C1981       C  0.34474115  0.09711747  0.08913409     0.36500
C1982       C  0.16920142  0.52422990  0.06400135     0.36500
N1983       N  0.36980608  0.11609382  0.09422664    -0.38300
N1984       N  0.14906790  0.50683689  0.05385326    -0.38300
N1985       N  0.34069765  0.11523725  0.03771136    -0.37700
N1986       N  0.12625292  0.51667327  0.11112261    -0.37700
C1987       C  0.41262517  0.99455426  0.14119808    -0.04400
C1988       C  0.40517571  0.97285831  0.12419950    -0.01500
C1989       C  0.38981969  0.93663340  0.12699983     0.03500
C1990       C  0.39173061  0.92091377  0.14595594    -0.04400
C1991       C  0.41472396  0.93890173  0.16037981    -0.01500
C1992       C  0.42719053  0.97607010  0.15727472     0.03500
C1993       C  0.40061024  0.99152926  0.10566903     0.38100
C1994       C  0.42216347  0.92136240  0.17887991     0.38100
C1995       C  0.44598749  0.99782250  0.17264903     0.36500
C1996       C  0.36822018  0.91844375  0.11137493     0.36500
N1997       N  0.46092789  0.01514925  0.18501995    -0.38300
N1998       N  0.35074001  0.90533022  0.09857118    -0.38300
N1999       N  0.42868470  0.90831215  0.19386996    -0.37700
N2000       N  0.39656065  0.00643141  0.09089706    -0.37700
C2001       C  0.20866094  0.68507036  0.16928528    -0.04400
C2002       C  0.20962603  0.70155478  0.15067030    -0.01500
C2003       C  0.22585813  0.73742096  0.14860445     0.03500
C2004       C  0.23923430  0.75759941  0.16536043    -0.04400
C2005       C  0.23493416  0.74221914  0.18425453    -0.01500
C2006       C  0.22017308  0.70563770  0.18619502     0.03500
C2007       C  0.19721627  0.68014490  0.13333760     0.38100
C2008       C  0.24827638  0.76288665  0.20154024     0.38100
C2009       C  0.21777629  0.68884902  0.20546786     0.36500
C2010       C  0.23276489  0.75078156  0.12890622     0.36500
N2011       N  0.21580073  0.67583784  0.22093327    -0.38300
N2012       N  0.23812500  0.75853238  0.11265744    -0.38300
N2013       N  0.25875021  0.77906414  0.21546645    -0.37700
N2014       N  0.18736299  0.66306389  0.11955995    -0.37700
C2015       C  0.33435879  0.04222253  0.21327560    -0.04400
C2016       C  0.13250865  0.56055897  0.23472294    -0.01500
C2017       C  0.12622744  0.55189444  0.25473634     0.03500
C2018       C  0.32544429  0.03567373  0.25511509    -0.04400
C2019       C  0.32747438  0.07127004  0.24617329    -0.01500
C2020       C  0.33167696  0.07443487  0.22544222     0.03500
C2021       C  0.10160918  0.55564825  0.22106207     0.38100
C2022       C  0.32391607  0.10501399  0.25802052     0.38100
C2023       C  0.33146491  0.11096004  0.21664418     0.36500
C2024       C  0.09104972  0.53406002  0.26058204     0.36500
N2025       N  0.33117023  0.14015174  0.20971096    -0.38300
N2026       N  0.06322677  0.51905428  0.26499683    -0.38300
N2027       N  0.32117978  0.13203164  0.26740423    -0.37700
N2028       N  0.07678767  0.55182392  0.21028461    -0.37700
C2029       C  0.01721863  0.69060694  0.10096517    -0.04400
C2030       C  0.48390272  0.83625749  0.08752801    -0.01500
C2031       C  0.47960963  0.83583217  0.06685814     0.03500
C2032       C  0.01793949  0.69562341  0.05924040    -0.04400
C2033       C  0.04246784  0.67205006  0.06868779    -0.01500
C2034       C  0.04196688  0.66918476  0.08938937     0.03500
C2035       C  0.46515354  0.86439369  0.09902618     0.38100
C2036       C  0.06892947  0.65128118  0.05703163     0.38100
C2037       C  0.06817980  0.64508622  0.09857012     0.36500
C2038       C  0.45371206  0.86042704  0.05780538     0.36500
N2039       N  0.08948753  0.62623715  0.10580785    -0.38300
N2040       N  0.43315847  0.88011195  0.05060435    -0.38300
N2041       N  0.09009314  0.63482894  0.04774907    -0.37700
N2042       N  0.45063262  0.88724133  0.10812742    -0.37700
C2043       C  0.53101882  0.80512049  0.21478855    -0.04400
C2044       C  0.53878325  0.83747458  0.22644295    -0.01500
C2045       C  0.54135233  0.83493719  0.24709787     0.03500
C2046       C  0.53047344  0.80133681  0.25641518    -0.04400
C2047       C  0.06338172  0.67187724  0.24931686    -0.01500
C2048       C  0.05832493  0.66904542  0.22872281     0.03500
C2049       C  0.54401746  0.87342866  0.21723285     0.38100
C2050       C  0.09665486  0.65775862  0.25816252     0.38100
C2051       C  0.08698516  0.65259469  0.21669275     0.36500
C2052       C  0.55624498  0.86660548  0.25850755     0.36500
N2053       N  0.11018329  0.64049728  0.20690154    -0.38300
N2054       N  0.56937619  0.89164546  0.26734614    -0.38300
N2055       N  0.12333999  0.64692252  0.26523272    -0.37700
N2056       N  0.54710217  0.90211960  0.20979793    -0.37700
C2057       C  0.08780806  0.92852905  0.10426685    -0.04400
C2058       C  0.11277797  0.92141512  0.08855845    -0.01500
C2059       C  0.10123863  0.92489804  0.06870003     0.03500
C2060       C  0.06521625  0.93697686  0.06432956    -0.04400
C2061       C  0.42794826  0.57026087  0.07131077    -0.01500
C2062       C  0.42058157  0.57162321  0.09187931     0.03500
C2063       C  0.15060941  0.91162187  0.09258755     0.38100
C2064       C  0.39732640  0.56845444  0.05739647     0.38100
C2065       C  0.38218504  0.56908832  0.09860898     0.36500
C2066       C  0.12656388  0.91641318  0.05264926     0.36500
N2067       N  0.35157045  0.56671479  0.10400465    -0.38300
N2068       N  0.14661961  0.90965795  0.03977783    -0.38300
N2069       N  0.37313840  0.56685355  0.04615524    -0.37700
N2070       N  0.18135387  0.90485529  0.09530511    -0.37700
C2071       C  0.65113813  0.93945894  0.14318768    -0.04400
C2072       C  0.15006218  0.79032431  0.17208064    -0.01500
C2073       C  0.13696436  0.75308479  0.17366815     0.03500
C2074       C  0.61289272  0.87112371  0.14655972    -0.04400
C2075       C  0.61548259  0.88830668  0.12802405    -0.01500
C2076       C  0.63782229  0.92109167  0.12606031     0.03500
C2077       C  0.16849579  0.80991526  0.18833929     0.38100
C2078       C  0.59307744  0.87460240  0.11156226     0.38100
C2079       C  0.64093028  0.93969271  0.10736946     0.36500
C2080       C  0.13426497  0.73648643  0.19290744     0.36500
N2081       N  0.64360673  0.95378606  0.09221120    -0.38300
N2082       N  0.13243576  0.72453049  0.20861268    -0.38300
N2083       N  0.57552778  0.86472335  0.09806470    -0.37700
N2084       N  0.18397362  0.82567125  0.20107966    -0.37700
C2085       C  0.38682280  0.67666734  0.16148482    -0.04400
C2086       C  0.39290649  0.69381980  0.14324032    -0.01500
C2087       C  0.41272047  0.72841096  0.14266893     0.03500
C2088       C  0.42576259  0.74522785  0.16045895    -0.04400
C2089       C  0.89532019  0.63016225  0.17675548    -0.01500
C2090       C  0.86772348  0.60128263  0.17564910     0.03500
C2091       C  0.38371575  0.67338679  0.12518639     0.38100
C2092       C  0.90380843  0.64792424  0.19557246     0.38100
C2093       C  0.83951629  0.59612047  0.19068866     0.36500
C2094       C  0.42405822  0.74382335  0.12387385     0.36500
N2095       N  0.81585517  0.59242167  0.20221525    -0.38300
N2096       N  0.43331531  0.75568991  0.10881042    -0.38300
N2097       N  0.91004778  0.66099120  0.21097526    -0.37700
N2098       N  0.37629359  0.65747217  0.11065218    -0.37700
C2099       C  0.62122323  0.03436910  0.25499462    -0.04400
C2100       C  0.87388827  0.48803572  0.25844616    -0.01500
C2101       C  0.87787905  0.49345120  0.23791930     0.03500
C2102       C  0.61228945  0.03064296  0.21298076    -0.04400
C2103       C  0.62228096  0.99905884  0.22350095    -0.01500
C2104       C  0.62972617  0.00171949  0.24396169     0.03500
C2105       C  0.85805052  0.51755822  0.27028193     0.38100
C2106       C  0.62355140  0.96314346  0.21359688     0.38100
C2107       C  0.64777053  0.97112958  0.25324361     0.36500
C2108       C  0.87478481  0.53045868  0.23026693     0.36500
N2109       N  0.66289468  0.94702020  0.26047612    -0.38300
N2110       N  0.87370379  0.56069131  0.22486229    -0.38300
N2111       N  0.62359253  0.93377009  0.20634715    -0.37700
N2112       N  0.84466513  0.54057867  0.27978508    -0.37700
O2113       O  0.60312288  0.04818154  0.12434490    -0.70800
O2114       O  0.45314703  0.59108173  0.19508145    -0.71100
O2115       O  0.48264358  0.54467855  0.16851441    -0.70900
O2116       O  0.58328432  0.08865331  0.15568141    -0.70900
O2117       O  0.05627094  0.94844190  0.16684917    -0.70900
O2118       O  0.89871870  0.41507330  0.16569081    -0.70900
O2119       O  0.07712367  0.89493601  0.19090987    -0.70800
O2120       O  0.89293165  0.46088373  0.13528778    -0.71000
V2121       V  0.45874393  0.59076587  0.16718577     1.35200
V2122       V  0.88051983  0.46285556  0.16301615     1.35200
C2123       C  0.57373191  0.03208149  0.11758335     0.78400
C2124       C  0.89263878  0.47041357  0.20339199     0.78500
C2125       C  0.46298415  0.51498709  0.16649365     0.78300
C2126       C  0.54889395  0.08360583  0.15941601     0.78300
O2127       O  0.51608446  0.29505426  0.14010466    -0.70800
O2128       O  0.50987531  0.28566836  0.19615261    -0.71100
O2129       O  0.51117196  0.23815488  0.16511867    -0.70900
O2130       O  0.51602583  0.34260160  0.17081854    -0.70900
O2131       O  0.96058842  0.23339893  0.17682700    -0.70900
O2132       O  0.99380211  0.13565940  0.17518012    -0.70900
O2133       O  0.97712195  0.18447581  0.20401559    -0.70800
O2134       O  0.97824452  0.18500920  0.14782133    -0.71000
V2135       V  0.51208960  0.29022520  0.16808651     1.35200
V2136       V  0.97850952  0.18509452  0.17599598     1.35200
C2137       C  0.48699619  0.29457314  0.12953017     0.78400
C2138       C  0.00564559  0.19458293  0.21397857     0.78500
C2139       C  0.02797094  0.12912724  0.17483491     0.78300
C2140       C  0.98309862  0.26114149  0.17717968     0.78300
O2141       O  0.70995544  0.49271341  0.14144765    -0.70800
O2142       O  0.70512921  0.48662022  0.19745363    -0.71100
O2143       O  0.75070635  0.46103293  0.16913609    -0.70900
O2144       O  0.82249114  0.98405665  0.16341820    -0.70900
O2145       O  0.76654628  0.96368956  0.17081473    -0.70900
O2146       O  0.71413970  0.41122318  0.16837347    -0.70900
O2147       O  0.66672453  0.43907702  0.19445520    -0.70800
O2148       O  0.67752628  0.44076820  0.13903268    -0.71000
V2149       V  0.70703328  0.48892294  0.16946093     1.35200
V2150       V  0.67255765  0.44107303  0.16679491     1.35200
C2151       C  0.69535586  0.46700565  0.13060625     0.78400
C2152       C  0.68462742  0.46184626  0.20561602     0.78500
C2153       C  0.74659275  0.42609607  0.16865429     0.78300
C2154       C  0.78909872  0.99061067  0.16783344     0.78300
O2155       O  0.79753422  0.20996689  0.14581914    -0.70800
O2156       O  0.79783827  0.21667018  0.20269712    -0.71100
O2157       O  0.79291881  0.16122566  0.17514989    -0.70900
O2158       O  0.80489156  0.26503230  0.17307939    -0.70900
O2159       O  0.74465467  0.27000584  0.17311654    -0.70900
O2160       O  0.73251523  0.16435631  0.17502696    -0.70900
O2161       O  0.73771446  0.22049274  0.20217151    -0.70800
O2162       O  0.73748818  0.21452735  0.14650580    -0.71000
V2163       V  0.79713878  0.21324101  0.17426172     1.35200
V2164       V  0.73928583  0.21727896  0.17430090     1.35200
C2165       C  0.76684022  0.21070317  0.13652490     0.78400
C2166       C  0.76737974  0.22053125  0.21207570     0.78500
C2167       C  0.76126435  0.14505540  0.17453380     0.78300
C2168       C  0.77710507  0.28504770  0.17242522     0.78300
O2169       O  0.90590493  0.43557242  0.35648398    -0.70800
O2170       O  0.90735119  0.43222978  0.29927153    -0.71100
O2171       O  0.48655993  0.54013908  0.32468606    -0.70900
O2172       O  0.87197979  0.39205727  0.32781173    -0.70900
O2173       O  0.00924446  0.91312221  0.32125273    -0.70900
O2174       O  0.66080496  0.07504389  0.31915007    -0.70900
O2175       O  0.05147440  0.94429132  0.29241543    -0.70800
O2176       O  0.04027460  0.96168910  0.34792817    -0.71000
V2177       V  0.90588027  0.43387323  0.32791606     1.35200
V2178       V  0.04627563  0.95199472  0.32027829     1.35200
C2179       C  0.88457632  0.45769681  0.36563733     0.78400
C2180       C  0.88467487  0.45139516  0.28965139     0.78500
C2181       C  0.49490899  0.57433656  0.32680466     0.78300
C2182       C  0.83770327  0.39809171  0.32785065     0.78300
O2183       O  0.97251717  0.15898673  0.36384192    -0.70800
O2184       O  0.98411361  0.16324981  0.30888504    -0.71100
O2185       O  0.49352167  0.22797965  0.32827115    -0.70900
O2186       O  0.94315239  0.19854956  0.33542701    -0.70900
O2187       O  0.98675610  0.24208905  0.33849340    -0.70900
O2188       O  0.52627604  0.28022774  0.32870408    -0.70900
O2189       O  0.02769143  0.20600602  0.31179014    -0.70800
O2190       O  0.01502275  0.20337576  0.36768438    -0.71000
V2191       V  0.97965592  0.16200835  0.33642039     1.35200
V2192       V  0.02116225  0.20392566  0.33982967     1.35200
C2193       C  0.99055064  0.18134957  0.37503658     0.78400
C2194       C  0.00677803  0.18562070  0.30063342     0.78500
C2195       C  0.52489329  0.24497018  0.32811027     0.78300
C2196       C  0.95291732  0.23279359  0.33649592     0.78300
O2197       O  0.87531006  0.94421882  0.35305476    -0.70800
O2198       O  0.86928812  0.93912895  0.29687574    -0.71100
O2199       O  0.84425781  0.98463863  0.32523457    -0.70900
O2200       O  0.90141938  0.89905857  0.32471498    -0.70900
O2201       O  0.67061533  0.39373657  0.32863834    -0.70900
O2202       O  0.60699198  0.47552863  0.32747250    -0.70900
O2203       O  0.64371365  0.43561954  0.30016575    -0.70800
O2204       O  0.63417323  0.43403707  0.35618538    -0.71000
V2205       V  0.87171115  0.94088822  0.32500473     1.35200
V2206       V  0.63964753  0.43545322  0.32817965     1.35200
C2207       C  0.65736807  0.45231126  0.36699091     0.78400
C2208       C  0.66825074  0.45636995  0.29190450     0.78500
C2209       C  0.62014932  0.50851228  0.32950121     0.78300
C2210       C  0.70538277  0.40011305  0.32904493     0.78300
O2211       O  0.74585600  0.20791025  0.36445638    -0.70800
O2212       O  0.75384573  0.20424591  0.30859287    -0.71100
O2213       O  0.80031886  0.22241589  0.33815770    -0.70900
O2214       O  0.69828061  0.19075309  0.33465589    -0.70900
O2215       O  0.68408384  0.24905589  0.33383087    -0.70900
O2216       O  0.78471962  0.28022711  0.33681201    -0.70900
O2217       O  0.73873225  0.26192290  0.30718368    -0.70800
O2218       O  0.73158912  0.26585491  0.36384454    -0.71000
V2219       V  0.74923891  0.20743705  0.33650425     1.35200
V2220       V  0.73483332  0.26307652  0.33548007     1.35200
C2221       C  0.73849565  0.23741008  0.37392057     0.78400
C2222       C  0.74873925  0.23247474  0.29823449     0.78500
C2223       C  0.80951977  0.25674697  0.33761777     0.78300
C2224       C  0.67397694  0.21510489  0.33334975     0.78300
N2225       N  0.62483186  0.00142081  0.50908200    -0.35700
N2226       N  0.03788635  0.98875460  0.51504252    -0.56200
N2227       N  0.85240222  0.48105959  0.48005599    -0.35700
N2228       N  0.44561968  0.50457140  0.47792521    -0.56200
C2229       C  0.61217779  0.01668216  0.52625242     0.27900
C2230       C  0.66227345  0.01034058  0.50745541     0.27900
C2231       C  0.81545724  0.48699781  0.48426327     0.27900
C2232       C  0.86004640  0.49359134  0.46168712     0.27900
C2233       C  0.05007206  0.97571570  0.53235850     0.36500
C2234       C  0.00048540  0.98032855  0.51369057     0.36500
C2235       C  0.48351035  0.50315001  0.48071866     0.36500
C2236       C  0.44007258  0.51593636  0.45914932     0.38100
C2237       C  0.64177530  0.03584861  0.53549224    -0.20900
C2238       C  0.67273090  0.03276663  0.52349261    -0.20900
C2239       C  0.80043963  0.50497785  0.46844710    -0.20900
C2240       C  0.82761805  0.50739010  0.45402460    -0.20900
C2241       C  0.01985865  0.95966331  0.54242027    -0.22000
C2242       C  0.98875300  0.96226492  0.53059182    -0.22000
C2243       C  0.50142527  0.51680732  0.46409361    -0.22000
C2244       C  0.47458057  0.52308947  0.45037618    -0.22000
C2245       C  0.08678761  0.98200016  0.54024988    -0.17400
C2246       C  0.50185595  0.49386867  0.49888491    -0.17400
C2247       C  0.89471572  0.49130579  0.45113169    -0.17300
C2248       C  0.79482329  0.47426421  0.50146804    -0.17300
H2249       H  0.64108717  0.05126687  0.54933807     0.15600
H2250       H  0.69954780  0.04682466  0.52597239     0.15600
H2251       H  0.77242193  0.51461375  0.46707428     0.15600
H2252       H  0.82352562  0.51867826  0.43960303     0.15600
H2253       H  0.02012489  0.94736304  0.55686098     0.13800
H2254       H  0.96093767  0.95150325  0.53396488     0.13800
H2255       H  0.53076057  0.52367779  0.46215911     0.13800
H2256       H  0.48016186  0.53401603  0.43586043     0.13800
H2257       H  0.60908068  0.98367953  0.49971466     0.27100
H2258       H  0.87087324  0.46523423  0.48781185     0.27100
N2259       N  0.92371735  0.21874770  0.52474980    -0.35700
N2260       N  0.50949769  0.24998632  0.52035997    -0.56200
N2261       N  0.51287805  0.24140760  0.47998891    -0.35700
N2262       N  0.91854180  0.22002528  0.48466390    -0.56200
C2263       C  0.93931093  0.23425327  0.54122524     0.27900
C2264       C  0.88906464  0.23287563  0.52228024     0.27900
C2265       C  0.54856312  0.25311544  0.48471544     0.27900
C2266       C  0.50288454  0.25854261  0.46325300     0.27900
C2267       C  0.49709534  0.24527251  0.53904867     0.36500
C2268       C  0.54484110  0.23727643  0.51909747     0.36500
C2269       C  0.88262139  0.20905895  0.48907459     0.36500
C2270       C  0.92848843  0.20187608  0.46795620     0.36500
C2271       C  0.91447642  0.25886972  0.54948017    -0.20900
C2272       C  0.88354618  0.25901760  0.53721547    -0.20900
C2273       C  0.56114278  0.27878611  0.47101762    -0.20900
C2274       C  0.53231500  0.28263620  0.45771673    -0.20900
C2275       C  0.52447087  0.22867397  0.54985210    -0.22000
C2276       C  0.55424604  0.22283890  0.53716165    -0.22000
C2277       C  0.86971039  0.18358023  0.47483861    -0.22000
C2278       C  0.89877006  0.17877537  0.46167366    -0.22000
C2279       C  0.97250323  0.22228509  0.55038296    -0.17400
C2280       C  0.86371808  0.22139342  0.50658150    -0.17400
C2281       C  0.96236648  0.20931037  0.45736221    -0.17300
C2282       C  0.56827331  0.24232169  0.50195968    -0.17300
H2283       H  0.91840022  0.27523492  0.56292745     0.15600
H2284       H  0.85986590  0.27644029  0.53917257     0.15600
H2285       H  0.58787752  0.29378648  0.47088893     0.15600
H2286       H  0.53330837  0.30063764  0.44509362     0.15600
H2287       H  0.52328658  0.22192906  0.56533468     0.13800
H2288       H  0.58004329  0.21027137  0.54102830     0.13800
H2289       H  0.84328350  0.16821767  0.47431606     0.13800
H2290       H  0.89797391  0.16046909  0.44881215     0.13800
H2291       H  0.93487299  0.19644541  0.51691726     0.27100
H2292       H  0.49711254  0.22037503  0.48694460     0.27100
N2293       N  0.69117264  0.47217152  0.52181783    -0.35700
N2294       N  0.60237129  0.48463480  0.52089500    -0.56200
N2295       N  0.60467819  0.47720572  0.48001409    -0.35700
N2296       N  0.69302900  0.46884453  0.48121537    -0.56200
C2297       C  0.68095098  0.48388471  0.54008167     0.27900
C2298       C  0.72861947  0.48054449  0.51918365     0.27900
C2299       C  0.56654405  0.47469583  0.48256190     0.27900
C2300       C  0.61283932  0.46196083  0.46211091     0.27900
C2301       C  0.61014614  0.47257054  0.53920322     0.36500
C2302       C  0.56465787  0.48006723  0.51809360     0.36500
C2303       C  0.72959566  0.46103190  0.48437955     0.36500
C2304       C  0.68417713  0.45675785  0.46273679     0.36500
C2305       C  0.71237543  0.49929637  0.54949602    -0.20900
C2306       C  0.74190411  0.49813371  0.53625866    -0.20900
C2307       C  0.55123632  0.45572061  0.46640980    -0.20900
C2308       C  0.57966633  0.44961282  0.45325539    -0.20900
C2309       C  0.57718369  0.45941291  0.54790778    -0.22000
C2310       C  0.54899379  0.46310393  0.53448373    -0.22000
C2311       C  0.74342172  0.44294000  0.46788208    -0.22000
C2312       C  0.71531186  0.44122362  0.45410620    -0.22000
C2313       C  0.64526620  0.47684140  0.54922473    -0.17400
C2314       C  0.75049503  0.47156123  0.50182693    -0.17400
C2315       C  0.64886183  0.45845840  0.45306577    -0.17300
C2316       C  0.54547609  0.48566218  0.49982458    -0.17300
H2317       H  0.71397770  0.51040204  0.56441798     0.15600
H2318       H  0.76996096  0.50889397  0.53907266     0.15600
H2319       H  0.52247650  0.44642737  0.46434383     0.15600
H2320       H  0.57595240  0.43607019  0.43901495     0.15600
H2321       H  0.57362796  0.44773318  0.56241064     0.13800
H2322       H  0.52056214  0.45267779  0.53635366     0.13800
H2323       H  0.77091847  0.43212414  0.46589209     0.13800
H2324       H  0.71722926  0.42861324  0.43953513     0.13800
H2325       H  0.67363183  0.45534828  0.51292928     0.27100
H2326       H  0.62439351  0.49145076  0.48884433     0.27100
N2327       N  0.66923383  0.23820865  0.52380069    -0.35700
N2328       N  0.67091356  0.23122904  0.48420914    -0.56200
N2329       N  0.78050401  0.22928796  0.47807315    -0.35700
N2330       N  0.76146300  0.23897989  0.52560890    -0.56200
C2331       C  0.63394470  0.24958118  0.51954612     0.27900
C2332       C  0.68042107  0.25484742  0.54099807     0.27900
C2333       C  0.74711539  0.21200956  0.47336129     0.27900
C2334       C  0.79640267  0.20868911  0.49229918     0.27900
C2335       C  0.63307769  0.22867510  0.48503211     0.36500
C2336       C  0.68201598  0.22297982  0.46568719     0.36500
C2337       C  0.74900983  0.23691751  0.54455580     0.36500
C2338       C  0.79852871  0.23019727  0.52549536     0.36500
C2339       C  0.62320071  0.27405432  0.53430512    -0.20900
C2340       C  0.65171562  0.27659291  0.54793035    -0.20900
C2341       C  0.74187441  0.18023416  0.48434340    -0.20900
C2342       C  0.77304894  0.17759942  0.49580011    -0.20900
C2343       C  0.62000168  0.21751495  0.46650501    -0.22000
C2344       C  0.65087961  0.21513363  0.45411935    -0.22000
C2345       C  0.77820060  0.22630410  0.55637054    -0.22000
C2346       C  0.80879583  0.22124380  0.54439991    -0.22000
C2347       C  0.61202318  0.23920413  0.50228122    -0.17400
C2348       C  0.71309848  0.24706883  0.55213329    -0.17400
C2349       C  0.81982597  0.22346231  0.50773154    -0.17300
C2350       C  0.72020796  0.22401321  0.45974289    -0.17300
H2351       H  0.59758352  0.28889575  0.53516659     0.15600
H2352       H  0.65119172  0.29287938  0.56149226     0.15600
H2353       H  0.71773684  0.16120148  0.48424156     0.15600
H2354       H  0.77626870  0.15751587  0.50732379     0.15600
H2355       H  0.59147030  0.21158345  0.46220916     0.13800
H2356       H  0.65050564  0.20734381  0.43862648     0.13800
H2357       H  0.77738103  0.22163125  0.57208600     0.13800
H2358       H  0.83444806  0.20936390  0.54903416     0.13800
H2359       H  0.68367374  0.21691012  0.51690193     0.27100
H2360       H  0.78979954  0.25566295  0.47349068     0.27100
N2361       N  0.49533834  0.10494354  0.97090931    -0.35700
N2362       N  0.50842231  0.10283554  0.01110260    -0.56200
N2363       N  0.48203067  0.51783768  0.01581627    -0.35700
N2364       N  0.48609759  0.51127220  0.97455409    -0.56200
C2365       C  0.50401939  0.14202172  0.97455903     0.27900
C2366       C  0.50577957  0.09685568  0.95207968     0.27900
C2367       C  0.46817631  0.52993300  0.03338869     0.27900
C2368       C  0.47398421  0.48011152  0.01390427     0.27900
C2369       C  0.51083239  0.14095094  0.00994200     0.36500
C2370       C  0.52486062  0.09309154  0.02816185     0.36500
C2371       C  0.47287375  0.51978365  0.95656424     0.36500
C2372       C  0.47419285  0.47559385  0.97839491     0.36500
C2373       C  0.52154909  0.15676676  0.95807442    -0.20900
C2374       C  0.52176287  0.12890361  0.94386931    -0.20900
C2375       C  0.45103031  0.49955982  0.04268579    -0.20900
C2376       C  0.45367007  0.46889361  0.03028880    -0.20900
C2377       C  0.53067334  0.15497616  0.02614547    -0.22000
C2378       C  0.53874399  0.12511226  0.03773300    -0.22000
C2379       C  0.45149602  0.48986715  0.94909904    -0.22000
C2380       C  0.45144333  0.46247545  0.96307513    -0.22000
C2381       C  0.50013224  0.16199102  0.99299716    -0.17400
C2382       C  0.49837513  0.06272906  0.94124563    -0.17400
C2383       C  0.47980415  0.45683302  0.99663612    -0.17300
C2384       C  0.47272024  0.56667512  0.04217351    -0.17300
H2385       H  0.53369634  0.18461104  0.95651608     0.15600
H2386       H  0.53293981  0.13201200  0.92912793     0.15600
H2387       H  0.43727906  0.49931588  0.05690012     0.15600
H2388       H  0.44074454  0.44168487  0.03282850     0.15600
H2389       H  0.54039837  0.18342691  0.02895821     0.13800
H2390       H  0.55354917  0.12683661  0.05160684     0.13800
H2391       H  0.43694066  0.48816524  0.93514959     0.13800
H2392       H  0.43543564  0.43634579  0.96225439     0.13800
H2393       H  0.48004602  0.08673002  0.97994008     0.27100
H2394       H  0.49866142  0.53440815  0.00660141     0.27100
N2395       N  0.47029660  0.35393806  0.97736236    -0.35700
N2396       N  0.48645439  0.35406156  0.01638306    -0.56200
N2397       N  0.49853739  0.26423882  0.01473703    -0.35700
N2398       N  0.48353817  0.26396084  0.97509137    -0.56200
C2399       C  0.48323679  0.39018670  0.97960969     0.27900
C2400       C  0.47903176  0.34235027  0.95886447     0.27900
C2401       C  0.48718762  0.27367446  0.03323290     0.27900
C2402       C  0.49099384  0.22666863  0.01188110     0.27900
C2403       C  0.48970264  0.39213514  0.01496964     0.36500
C2404       C  0.49802512  0.34470821  0.03455314     0.36500
C2405       C  0.46599367  0.27258780  0.95819225     0.36500
C2406       C  0.48191380  0.22595125  0.97668962     0.36500
C2407       C  0.50170165  0.40067202  0.96248209    -0.20900
C2408       C  0.49770654  0.37131834  0.94923307    -0.20900
C2409       C  0.47204040  0.24191920  0.04210738    -0.20900
C2410       C  0.47358351  0.21287180  0.02861682    -0.20900
C2411       C  0.50594065  0.40645667  0.03215236    -0.22000
C2412       C  0.51003670  0.37693263  0.04462390    -0.22000
C2413       C  0.45219421  0.24002228  0.94915808    -0.22000
C2414       C  0.46143815  0.21087973  0.96094261    -0.22000
C2415       C  0.48175191  0.41258436  0.99737523    -0.17400
C2416       C  0.46602049  0.30856078  0.94949705    -0.17400
C2417       C  0.49407263  0.20583179  0.99363915    -0.17300
C2418       C  0.49316633  0.30883196  0.04334220    -0.17300
H2419       H  0.51717061  0.42654818  0.95981158     0.15600
H2420       H  0.50813684  0.37121564  0.93425239     0.15600
H2421       H  0.46029029  0.23991195  0.05678711     0.15600
H2422       H  0.46173548  0.18505283  0.03068449     0.15600
H2423       H  0.51553539  0.43481340  0.03529465     0.13800
H2424       H  0.52104128  0.37896104  0.05945396     0.13800
H2425       H  0.43677368  0.23749707  0.93549046     0.13800
H2426       H  0.45217957  0.18216816  0.95854021     0.13800
H2427       H  0.45285030  0.33888009  0.98693537     0.27100
H2428       H  0.51344529  0.28215260  0.00538187     0.27100
N2429       N  0.74322862  0.99680920  0.97951833    -0.35700
N2430       N  0.73005550  0.40049179  0.98023558    -0.56200
N2431       N  0.71952715  0.40681460  0.01993364    -0.35700
N2432       N  0.75161320  0.99122823  0.01935048    -0.56200
C2433       C  0.75649137  0.98997413  0.96114432     0.27900
C2434       C  0.75217057  0.03330159  0.98445889     0.27900
C2435       C  0.73311140  0.37152015  0.01872825     0.27900
C2436       C  0.72958330  0.42269995  0.03743597     0.27900
C2437       C  0.71598051  0.40911650  0.96248877     0.36500
C2438       C  0.71847507  0.36458777  0.98424241     0.36500
C2439       C  0.73990606  0.02718780  0.01950284     0.36500
C2440       C  0.74664656  0.97739541  0.03767156     0.36500
C2441       C  0.77396795  0.02257632  0.95429517    -0.20900
C2442       C  0.77140867  0.04961031  0.96894109    -0.20900
C2443       C  0.75270415  0.36548832  0.03586193    -0.20900
C2444       C  0.74960899  0.39714214  0.04779753    -0.20900
C2445       C  0.69550552  0.37837286  0.95503256    -0.22000
C2446       C  0.69650631  0.35062116  0.96888194    -0.22000
C2447       C  0.72649475  0.03571526  0.03815933    -0.22000
C2448       C  0.73170990  0.00483281  0.04969724    -0.22000
C2449       C  0.72487971  0.44246211  0.95190432    -0.17400
C2450       C  0.74332073  0.05161524  0.00281319    -0.17400
C2451       C  0.71638792  0.45712192  0.04531461    -0.17300
C2452       C  0.72717542  0.34595547  0.00217825    -0.17300
H2453       H  0.78691623  0.02672880  0.94002390     0.15600
H2454       H  0.78272127  0.07793087  0.96826272     0.15600
H2455       H  0.76783939  0.34108336  0.03945750     0.15600
H2456       H  0.76094613  0.40099007  0.06248911     0.15600
H2457       H  0.68114550  0.37620476  0.94103484     0.13800
H2458       H  0.68219885  0.32358358  0.96785239     0.13800
H2459       H  0.71441200  0.06140650  0.04308119     0.13800
H2460       H  0.72496703  0.00267882  0.06521401     0.13800
H2461       H  0.72569285  0.97835973  0.98725566     0.27100
H2462       H  0.70061333  0.41849071  0.01041695     0.27100
N2463       N  0.74094867  0.24549743  0.02326619    -0.35700
N2464       N  0.73929118  0.15404852  0.02399140    -0.56200
N2465       N  0.73185431  0.15282142  0.98396738    -0.35700
N2466       N  0.72398962  0.24231760  0.98385143    -0.56200
C2467       C  0.73320436  0.23409332  0.04182570     0.27900
C2468       C  0.72722568  0.28043374  0.02093859     0.27900
C2469       C  0.72516108  0.11558485  0.98753082     0.27900
C2470       C  0.71491123  0.16114903  0.96689661     0.27900
C2471       C  0.75486911  0.16702260  0.04103290     0.36500
C2472       C  0.75047843  0.11834635  0.02076292     0.36500
C2473       C  0.73532649  0.27917005  0.98556143     0.36500
C2474       C  0.73109414  0.23084547  0.96511119     0.36500
C2475       C  0.71441337  0.26217719  0.05158340    -0.20900
C2476       C  0.70989492  0.29075379  0.03837951    -0.20900
C2477       C  0.70339737  0.10039583  0.97236633    -0.20900
C2478       C  0.69747468  0.12873997  0.95930960    -0.20900
C2479       C  0.77568387  0.13906173  0.04892748    -0.22000
C2480       C  0.77355341  0.10879044  0.03598215    -0.22000
C2481       C  0.75082312  0.29058546  0.96786853    -0.22000
C2482       C  0.74702846  0.26070583  0.95485235    -0.22000
C2483       C  0.74680030  0.20146145  0.05093407    -0.17400
C2484       C  0.73034407  0.30180849  0.00306883    -0.17400
C2485       C  0.71998953  0.19532605  0.95647933    -0.17300
C2486       C  0.73963703  0.09549621  0.00391545    -0.17300
H2487       H  0.70472827  0.26200941  0.06671830     0.15600
H2488       H  0.69509054  0.31592674  0.04132386     0.15600
H2489       H  0.69308604  0.07181010  0.97069603     0.15600
H2490       H  0.68252102  0.12554014  0.94553209     0.15600
H2491       H  0.79102996  0.14039426  0.06263851     0.13800
H2492       H  0.78779396  0.08303294  0.03755582     0.13800
H2493       H  0.76350814  0.31756580  0.96454948     0.13800
H2494       H  0.75539976  0.26111767  0.93952103     0.13800
H2495       H  0.75822657  0.23134290  0.01352077     0.27100
H2496       H  0.75086026  0.17099449  0.99115018     0.27100
O2497       O  0.53884950  0.07519608  0.84608181    -0.70800
O2498       O  0.54718005  0.07196604  0.79012327    -0.71100
O2499       O  0.54969105  0.12659177  0.81824316    -0.70900
O2500       O  0.39179367  0.50619096  0.82696853    -0.70900
O2501       O  0.87949413  0.38468890  0.83325435    -0.70900
O2502       O  0.09257047  0.03277727  0.82452516    -0.70900
O2503       O  0.07550112  0.98110170  0.79668515    -0.70800
O2504       O  0.06342504  0.98725724  0.85237815    -0.71000
V2505       V  0.54180978  0.07400292  0.81807667     1.35200
V2506       V  0.07096317  0.98405765  0.82454289     1.35200
C2507       C  0.50773267  0.07664319  0.85483440     0.78400
C2508       C  0.10427370  0.96810665  0.78875985     0.78500
C2509       C  0.52139915  0.14626285  0.81784989     0.78300
C2510       C  0.36320372  0.52239187  0.83294033     0.78300
O2511       O  0.45223746  0.35347366  0.85694426    -0.70800
O2512       O  0.43889099  0.36448525  0.80167730    -0.71100
O2513       O  0.41411686  0.39989791  0.83489045    -0.70900
O2514       O  0.47619241  0.31853617  0.82444451    -0.70900
O2515       O  0.03412597  0.14410409  0.83247439    -0.70900
O2516       O  0.94527182  0.19738208  0.83593206    -0.70900
O2517       O  0.98804904  0.17335459  0.80607848    -0.70800
O2518       O  0.99131986  0.16868080  0.86192389    -0.71000
V2519       V  0.44430550  0.35857384  0.82945400     1.35200
V2520       V  0.99043611  0.17180857  0.83405403     1.35200
C2521       C  0.42981407  0.33351490  0.86704605     0.78400
C2522       C  0.00349319  0.20039192  0.79705010     0.78500
C2523       C  0.94703937  0.23237788  0.83796038     0.78300
C2524       C  0.06571695  0.16086341  0.83261178     0.78300
O2525       O  0.67283281  0.45848620  0.85933385    -0.70800
O2526       O  0.64181221  0.44570796  0.80629488    -0.71100
O2527       O  0.61912519  0.41735212  0.84132998    -0.70900
O2528       O  0.77184868  0.03376790  0.82361196    -0.70900
O2529       O  0.82855842  0.01652523  0.82802720    -0.70900
O2530       O  0.65678143  0.37275543  0.83468735    -0.70900
O2531       O  0.68291804  0.40415236  0.80145948    -0.70800
O2532       O  0.70753856  0.41094045  0.85611218    -0.71000
V2533       V  0.65786688  0.45107455  0.83277933     1.35200
V2534       V  0.69472051  0.40817365  0.82885798     1.35200
C2535       C  0.69453803  0.43622871  0.86714656     0.78400
C2536       C  0.65815499  0.42423281  0.79439371     0.78500
C2537       C  0.62568404  0.38311013  0.84106145     0.78300
C2538       C  0.80634472  0.04190842  0.82452655     0.78300
O2539       O  0.69756357  0.18356550  0.85842778    -0.70800
O2540       O  0.69371006  0.21489576  0.80465268    -0.71100
O2541       O  0.73485913  0.16787521  0.82446874    -0.70900
O2542       O  0.65584342  0.22902001  0.83825923    -0.70900
O2543       O  0.69562517  0.27429375  0.84561606    -0.70900
O2544       O  0.77563465  0.21290445  0.83052796    -0.70900
O2545       O  0.73303490  0.26075303  0.81155997    -0.70800
O2546       O  0.73874300  0.22813170  0.86446037    -0.71000
V2547       V  0.69639941  0.19963805  0.83156043     1.35200
V2548       V  0.73496866  0.24316465  0.83790444     1.35200
C2549       C  0.71821075  0.20153488  0.87076157     0.78400
C2550       C  0.71302178  0.24311014  0.79897580     0.78500
C2551       C  0.76837620  0.17974493  0.82467118     0.78300
C2552       C  0.66219753  0.26172626  0.84463421     0.78300
O2553       O  0.91626581  0.40716360  0.63799008    -0.70800
O2554       O  0.91379186  0.39917836  0.69410250    -0.71100
O2555       O  0.86559940  0.41649728  0.66612585    -0.70900
O2556       O  0.39481911  0.50099338  0.66968913    -0.70900
O2557       O  0.60558090  0.04286129  0.65718431    -0.70900
O2558       O  0.06438842  0.00381614  0.66666679    -0.70900
O2559       O  0.11543278  0.98416505  0.69279361    -0.70800
O2560       O  0.11199429  0.98919330  0.63703179    -0.71000
V2561       V  0.91581171  0.40388163  0.66612631     1.35200
V2562       V  0.11315952  0.98516453  0.66492289     1.35200
C2563       C  0.09908064  0.96262182  0.62631701     0.78400
C2564       C  0.10501487  0.95539570  0.70207362     0.78500
C2565       C  0.03686400  0.98085080  0.66725503     0.78300
C2566       C  0.59874271  0.00821883  0.65761720     0.78300
O2567       O  0.99481840  0.23922151  0.64614923    -0.70800
O2568       O  0.00245117  0.23655848  0.70174713    -0.71100
O2569       O  0.49043220  0.29920084  0.67197250    -0.70900
O2570       O  0.95216690  0.26159308  0.67613990    -0.70900
O2571       O  0.92341407  0.20728761  0.67349925    -0.70900
O2572       O  0.45011250  0.25258079  0.67408213    -0.70900
O2573       O  0.96980380  0.18458318  0.70178961    -0.70800
O2574       O  0.97023419  0.18334940  0.64552686    -0.71000
V2575       V  0.99774821  0.23685052  0.67396090     1.35200
V2576       V  0.97011442  0.18474135  0.67368341     1.35200
C2577       C  0.98234263  0.21152015  0.63611260     0.78400
C2578       C  0.98802616  0.20987843  0.71135921     0.78500
C2579       C  0.48343597  0.26488736  0.67435273     0.78300
C2580       C  0.92213070  0.24230705  0.67475239     0.78300
O2581       O  0.81470342  0.01635106  0.64040318    -0.70800
O2582       O  0.79927059  0.00591980  0.69556181    -0.71100
O2583       O  0.85841388  0.02225699  0.67227623    -0.70900
O2584       O  0.75594260  0.00014257  0.66347469    -0.70900
O2585       O  0.58096469  0.41313763  0.67010547    -0.70900
O2586       O  0.68579489  0.42622495  0.66982490    -0.70900
O2587       O  0.63478263  0.41277991  0.69777931    -0.70800
O2588       O  0.63325299  0.42676143  0.64244882    -0.71000
V2589       V  0.80721621  0.01003653  0.66794203     1.35200
V2590       V  0.63350573  0.42085109  0.67019389     1.35200
C2591       C  0.81955322  0.98828121  0.62926741     0.78400
C2592       C  0.63458556  0.44032543  0.70967046     0.78500
C2593       C  0.70100449  0.45834818  0.67156863     0.78300
C2594       C  0.56135605  0.44115941  0.67271334     0.78300
O2595       O  0.69388045  0.28402496  0.64809371    -0.70800
O2596       O  0.69848036  0.28792026  0.70448203    -0.71100
O2597       O  0.74801986  0.29785276  0.67491043    -0.70900
O2598       O  0.64428884  0.27457923  0.67760032    -0.70900
O2599       O  0.65481130  0.21531110  0.67735425    -0.70900
O2600       O  0.75830625  0.23855579  0.67523934    -0.70900
O2601       O  0.70870300  0.22875830  0.70439788    -0.70800
O2602       O  0.70525991  0.22531564  0.64832254    -0.71000
V2603       V  0.69625003  0.28496633  0.67627403     1.35200
V2604       V  0.70649189  0.22816553  0.67636491     1.35200
C2605       C  0.69954262  0.25411193  0.63847693     0.78400
C2606       C  0.70504903  0.25891887  0.71405350     0.78500
C2607       C  0.77067711  0.27188048  0.67459591     0.78300
C2608       C  0.63203706  0.24115811  0.67772043     0.78300
C2609       C  0.88595816  0.25986635  0.67419157    -0.04400
C2610       C  0.86743183  0.26273195  0.65599768    -0.01500
C2611       C  0.82974037  0.27193825  0.65578046     0.03500
C2612       C  0.81107989  0.27903962  0.67366839    -0.04400
C2613       C  0.83110924  0.28160995  0.69144689    -0.01500
C2614       C  0.86799743  0.26990659  0.69191939     0.03500
C2615       C  0.88606702  0.25343395  0.63762993     0.38100
C2616       C  0.81316786  0.29481365  0.70929945     0.38100
C2617       C  0.88568218  0.26392639  0.71071680     0.36500
C2618       C  0.80963638  0.27230258  0.63727874     0.36500
N2619       N  0.89957859  0.25858108  0.72571545    -0.38300
N2620       N  0.79402038  0.27267222  0.62240284    -0.38300
N2621       N  0.79913332  0.30609483  0.72347453    -0.37700
N2622       N  0.90027360  0.24602937  0.62279880    -0.37700
C2623       C  0.59171598  0.23315477  0.67778338    -0.04400
C2624       C  0.57267015  0.22806311  0.65972491    -0.01500
C2625       C  0.53370466  0.23006055  0.65934211     0.03500
C2626       C  0.51469374  0.24061172  0.67659025    -0.04400
C2627       C  0.53278334  0.24066663  0.69491179    -0.01500
C2628       C  0.57150653  0.23653590  0.69554365     0.03500
C2629       C  0.59308449  0.22530645  0.64131200     0.38100
C2630       C  0.51181971  0.24751310  0.71284810     0.38100
C2631       C  0.59056073  0.23658513  0.71433187     0.36500
C2632       C  0.51347237  0.22472402  0.64095594     0.36500
N2633       N  0.60522789  0.23537092  0.72944312    -0.38300
N2634       N  0.49736256  0.21990684  0.62632947    -0.38300
N2635       N  0.49493429  0.25274596  0.72713762    -0.37700
N2636       N  0.60864130  0.22391785  0.62636429    -0.37700
C2637       C  0.99849575  0.99342273  0.66912740    -0.04400
C2638       C  0.80141188  0.47312249  0.68558417    -0.01500
C2639       C  0.76246591  0.47473439  0.68644149     0.03500
C2640       C  0.92153600  0.00426699  0.67112317    -0.04400
C2641       C  0.94064309  0.00900586  0.65313728    -0.01500
C2642       C  0.97917161  0.00369231  0.65213569     0.03500
C2643       C  0.82335335  0.48219750  0.70302456     0.38100
C2644       C  0.92033439  0.01748458  0.63541604     0.38100
C2645       C  0.99767022  0.00486796  0.63314109     0.36500
C2646       C  0.74421063  0.48564524  0.70468941     0.36500
N2647       N  0.01096819  0.00537952  0.61759533    -0.38300
N2648       N  0.72968696  0.49418148  0.71926419    -0.38300
N2649       N  0.90464061  0.02447061  0.62117259    -0.37700
N2650       N  0.84028886  0.48934655  0.71714751    -0.37700
C2651       C  0.70372887  0.95996448  0.65789268    -0.04400
C2652       C  0.68992167  0.97226255  0.63996277    -0.01500
C2653       C  0.65404645  0.98618342  0.63932157     0.03500
C2654       C  0.63039982  0.98337653  0.65604780    -0.04400
C2655       C  0.46744883  0.46611307  0.68676366    -0.01500
C2656       C  0.49959716  0.44522732  0.68781990     0.03500
C2657       C  0.71370609  0.97287516  0.62258743     0.38100
C2658       C  0.44906127  0.47705371  0.70486780     0.38100
C2659       C  0.51314507  0.43375804  0.70677726     0.36500
C2660       C  0.64405227  0.00752642  0.62234370     0.36500
N2661       N  0.52352396  0.42498212  0.72205895    -0.38300
N2662       N  0.63824321  0.02520896  0.60869639    -0.38300
N2663       N  0.43601603  0.48559441  0.71980184    -0.37700
N2664       N  0.73216687  0.97263017  0.60856094    -0.37700
C2665       C  0.71430756  0.25334893  0.77771990    -0.04400
C2666       C  0.74230889  0.23920834  0.76540378    -0.01500
C2667       C  0.73910969  0.24077325  0.74469258     0.03500
C2668       C  0.70957722  0.25978165  0.73604436    -0.04400
C2669       C  0.68528556  0.27957517  0.74862027    -0.01500
C2670       C  0.68771754  0.27628835  0.76939803     0.03500
C2671       C  0.77601056  0.22593085  0.77408537     0.38100
C2672       C  0.65712222  0.30251339  0.74035086     0.38100
C2673       C  0.66556912  0.29945568  0.78217298     0.36500
C2674       C  0.76698698  0.22348677  0.73237262     0.36500
N2675       N  0.64883515  0.31947839  0.79204286    -0.38300
N2676       N  0.78929208  0.20968706  0.72260390    -0.38300
N2677       N  0.63441944  0.32071943  0.73387851    -0.37700
N2678       N  0.80349134  0.21638399  0.78086371    -0.37700
C2679       C  0.60000625  0.35464603  0.84919432    -0.04400
C2680       C  0.58810965  0.32788708  0.83499888    -0.01500
C2681       C  0.60511990  0.29324007  0.83462250     0.03500
C2682       C  0.63119892  0.28586950  0.84941925    -0.04400
C2683       C  0.63187869  0.30775924  0.86688279    -0.01500
C2684       C  0.61311087  0.34147132  0.86720043     0.03500
C2685       C  0.56724040  0.33967734  0.81822196     0.38100
C2686       C  0.65412510  0.29726373  0.88352146     0.38100
C2687       C  0.61566132  0.36650805  0.88414993     0.36500
C2688       C  0.60138748  0.26884089  0.81749677     0.36500
N2689       N  0.61769435  0.38632063  0.89778802    -0.38300
N2690       N  0.60016017  0.24965328  0.80363225    -0.38300
N2691       N  0.67202247  0.28886130  0.89675235    -0.37700
N2692       N  0.55094622  0.34901064  0.80463527    -0.37700
C2693       C  0.81899526  0.08016180  0.82009246    -0.04400
C2694       C  0.83060828  0.10529346  0.83517420    -0.01500
C2695       C  0.82303279  0.14324453  0.83325511     0.03500
C2696       C  0.79735618  0.15358139  0.81893509    -0.04400
C2697       C  0.79122495  0.12964226  0.80241607    -0.01500
C2698       C  0.80636111  0.09433984  0.80228886     0.03500
C2699       C  0.84661814  0.09196911  0.85314345     0.38100
C2700       C  0.76590892  0.13876523  0.78680151     0.38100
C2701       C  0.80676987  0.07171051  0.78443683     0.36500
C2702       C  0.84220439  0.17137684  0.84513813     0.36500
N2703       N  0.80862976  0.05477788  0.76982738    -0.38300
N2704       N  0.85939892  0.19414159  0.85369815    -0.38300
N2705       N  0.74530253  0.14484841  0.77429648    -0.37700
N2706       N  0.85898456  0.08130344  0.86762285    -0.37700
C2707       C  0.64977429  0.42473165  0.77257847    -0.04400
C2708       C  0.81720133  0.94866165  0.75772120    -0.01500
C2709       C  0.82190562  0.95041272  0.73703237     0.03500
C2710       C  0.63947113  0.43488881  0.73124576    -0.04400
C2711       C  0.66820471  0.41261667  0.73804078    -0.01500
C2712       C  0.67350596  0.40762438  0.75847532     0.03500
C2713       C  0.84196812  0.92608263  0.76889316     0.38100
C2714       C  0.69436374  0.39705314  0.72400265     0.38100
C2715       C  0.70452679  0.38586951  0.76461632     0.36500
C2716       C  0.85253630  0.93144178  0.72773339     0.36500
N2717       N  0.72946194  0.36855137  0.76925117    -0.38300
N2718       N  0.87705950  0.91632748  0.72040903    -0.38300
N2719       N  0.71536603  0.38493540  0.71283311    -0.37700
N2720       N  0.86174632  0.90796175  0.77771198    -0.37700
C2721       C  0.00119863  0.20293947  0.77503440    -0.04400
C2722       C  0.99762733  0.17022269  0.76305919    -0.01500
C2723       C  0.99376816  0.17259202  0.74240418     0.03500
C2724       C  0.99339293  0.20772750  0.73323855    -0.04400
C2725       C  0.45284612  0.34160430  0.73864377    -0.01500
C2726       C  0.44957517  0.35086783  0.75897294     0.03500
C2727       C  0.99912800  0.13368148  0.77176567     0.38100
C2728       C  0.48950809  0.34305585  0.72948034     0.38100
C2729       C  0.48118729  0.36972536  0.76858297     0.36500
C2730       C  0.99264712  0.13845170  0.73054054     0.36500
N2731       N  0.50646916  0.38558182  0.77575796    -0.38300
N2732       N  0.99211126  0.11126757  0.72108284    -0.38300
N2733       N  0.51878482  0.34311742  0.72225565    -0.37700
N2734       N  0.00023259  0.10445728  0.77859854    -0.37700
C2735       C  0.87402610  0.31857393  0.83788253    -0.04400
C2736       C  0.33937938  0.48237661  0.85738143    -0.01500
C2737       C  0.35496429  0.44685920  0.85699042     0.03500
C2738       C  0.91334799  0.25402285  0.84024789    -0.04400
C2739       C  0.88996353  0.25853117  0.82389970    -0.01500
C2740       C  0.87003069  0.29146064  0.82271015     0.03500
C2741       C  0.34120074  0.50573296  0.87501535     0.38100
C2742       C  0.88903070  0.23118567  0.80790973     0.38100
C2743       C  0.85085786  0.30042374  0.80480576     0.36500
C2744       C  0.37430383  0.43373225  0.87407556     0.36500
N2745       N  0.83549949  0.30742707  0.79045615    -0.38300
N2746       N  0.39017687  0.42377454  0.88770006    -0.38300
N2747       N  0.88812178  0.20881476  0.79539749    -0.37700
N2748       N  0.34248202  0.52415620  0.88919694    -0.37700
C2749       C  0.14203818  0.07620421  0.83016257    -0.04400
C2750       C  0.14075722  0.09992998  0.81396825    -0.01500
C2751       C  0.11896970  0.13171662  0.81523332     0.03500
C2752       C  0.09944676  0.13901761  0.83291053    -0.04400
C2753       C  0.49025779  0.23143205  0.84076291    -0.01500
C2754       C  0.51113365  0.19937035  0.83957083     0.03500
C2755       C  0.15861985  0.08920031  0.79568769     0.38100
C2756       C  0.46904853  0.23858155  0.85858575     0.38100
C2757       C  0.51786230  0.17815316  0.85712241     0.36500
C2758       C  0.11328491  0.15397377  0.79796898     0.36500
N2759       N  0.52375165  0.16203172  0.87131528    -0.38300
N2760       N  0.10879375  0.17171319  0.78416717    -0.38300
N2761       N  0.45146312  0.24252997  0.87275219    -0.37700
N2762       N  0.17333264  0.08096180  0.78112707    -0.37700
C2763       C  0.10642175  0.96450288  0.76663842    -0.04400
C2764       C  0.09576228  0.99443022  0.75492676    -0.01500
C2765       C  0.09468028  0.99084987  0.73413799     0.03500
C2766       C  0.10425047  0.95712489  0.72438886    -0.04400
C2767       C  0.37536200  0.53503628  0.73704242    -0.01500
C2768       C  0.38394218  0.53308799  0.75731081     0.03500
C2769       C  0.08559514  0.02934410  0.76427418     0.38100
C2770       C  0.35642585  0.50313941  0.72759206     0.38100
C2771       C  0.37803849  0.49809817  0.76734320     0.36500
C2772       C  0.08106237  0.02153406  0.72289809     0.36500
N2773       N  0.37395764  0.46993575  0.77518688    -0.38300
N2774       N  0.06962294  0.04564652  0.71391729    -0.38300
N2775       N  0.34096931  0.47777648  0.72017643    -0.37700
N2776       N  0.07720966  0.05708122  0.77169487    -0.37700
C2777       C  0.71829374  0.19267663  0.93438991    -0.04400
C2778       C  0.75167314  0.19003594  0.92362738    -0.01500
C2779       C  0.75150860  0.19238637  0.90293395     0.03500
C2780       C  0.71765150  0.19365767  0.89239492    -0.04400
C2781       C  0.68372020  0.19287433  0.90319795    -0.01500
C2782       C  0.68419331  0.19408649  0.92413119     0.03500
C2783       C  0.78671822  0.18708855  0.93404392     0.38100
C2784       C  0.64839147  0.19281231  0.89290887     0.38100
C2785       C  0.64984563  0.19827926  0.93513487     0.36500
C2786       C  0.78689734  0.19542269  0.89291666     0.36500
N2787       N  0.62250717  0.20196575  0.94394241    -0.38300
N2788       N  0.81629789  0.19883341  0.88613510    -0.38300
N2789       N  0.62010619  0.19241631  0.88476806    -0.37700
N2790       N  0.81461179  0.18498969  0.94235858    -0.37700
C2791       C  0.71818100  0.44195273  0.93013010    -0.04400
C2792       C  0.72776969  0.97575087  0.91583554    -0.01500
C2793       C  0.73456221  0.98269800  0.89565027     0.03500
C2794       C  0.70360149  0.43928910  0.88881206    -0.04400
C2795       C  0.73348086  0.41958050  0.89683968    -0.01500
C2796       C  0.74041683  0.42078095  0.91733423     0.03500
C2797       C  0.69213204  0.98431713  0.92468915     0.38100
C2798       C  0.75792610  0.39835204  0.88421016     0.38100
C2799       C  0.77062812  0.40009059  0.92535057     0.36500
C2800       C  0.70492310  0.99839627  0.88435201     0.36500
N2801       N  0.79454991  0.38341642  0.93177398    -0.38300
N2802       N  0.68107479  0.01091903  0.87550306    -0.38300
N2803       N  0.77755868  0.38137808  0.87423482    -0.37700
N2804       N  0.66377192  0.99114395  0.93178683    -0.37700
C2805       C  0.45537489  0.31132459  0.92820496    -0.04400
C2806       C  0.48274914  0.30811116  0.91340614    -0.01500
C2807       C  0.47463423  0.31690140  0.89374320     0.03500
C2808       C  0.43807300  0.32616365  0.88824199    -0.04400
C2809       C  0.97479572  0.18702665  0.90412886    -0.01500
C2810       C  0.97440683  0.18949701  0.92484624     0.03500
C2811       C  0.51961911  0.29629473  0.91856278     0.38100
C2812       C  0.94011299  0.17924769  0.89367014     0.38100
C2813       C  0.93931668  0.18603022  0.93551298     0.36500
C2814       C  0.50390551  0.31480610  0.87904118     0.36500
N2815       N  0.91137384  0.18299649  0.94401342    -0.38300
N2816       N  0.52714349  0.31269127  0.86727119    -0.38300
N2817       N  0.91234468  0.17290935  0.88546280    -0.37700
N2818       N  0.54892193  0.28670015  0.92271293    -0.37700
C2819       C  0.50011594  0.06493684  0.91907899    -0.04400
C2820       C  0.94466811  0.44873534  0.92095068    -0.01500
C2821       C  0.93511451  0.44342127  0.90074328     0.03500
C2822       C  0.50516767  0.07438661  0.87720762    -0.04400
C2823       C  0.53751292  0.06824357  0.88875435    -0.01500
C2824       C  0.53467430  0.06281660  0.90932523     0.03500
C2825       C  0.92456815  0.47511059  0.93303076     0.38100
C2826       C  0.57446482  0.06865637  0.87998397     0.38100
C2827       C  0.56772127  0.05575334  0.92074835     0.36500
C2828       C  0.90575754  0.46543826  0.89285040     0.36500
N2829       N  0.59390524  0.05019772  0.92996970    -0.38300
N2830       N  0.88236093  0.48314939  0.88667389    -0.38300
N2831       N  0.60414418  0.06915502  0.87323173    -0.37700
N2832       N  0.90858370  0.49625983  0.94260000    -0.37700
C2833       C  0.70886488  0.24930585  0.57422823    -0.04400
C2834       C  0.69893587  0.21693825  0.58481456    -0.01500
C2835       C  0.69440586  0.21864288  0.60554764     0.03500
C2836       C  0.70081592  0.25283635  0.61619355    -0.04400
C2837       C  0.71058961  0.28534549  0.60533611    -0.01500
C2838       C  0.71464036  0.28345464  0.58456932     0.03500
C2839       C  0.69434106  0.18146516  0.57429934     0.38100
C2840       C  0.71811164  0.32078908  0.61540845     0.38100
C2841       C  0.72508039  0.31675188  0.57373627     0.36500
C2842       C  0.68197585  0.18504503  0.61561935     0.36500
N2843       N  0.73322283  0.34331437  0.56506313    -0.38300
N2844       N  0.67162807  0.15820168  0.62346830    -0.38300
N2845       N  0.72425915  0.34903593  0.62345679    -0.37700
N2846       N  0.69113780  0.15316436  0.56591121    -0.37700
C2847       C  0.64409465  0.47273862  0.57126617    -0.04400
C2848       C  0.81139339  0.02592385  0.57668125    -0.01500
C2849       C  0.80873877  0.02310712  0.59743052     0.03500
C2850       C  0.63403287  0.46369052  0.61288952    -0.04400
C2851       C  0.63705078  0.43218438  0.59986868    -0.01500
C2852       C  0.64245060  0.43687868  0.57938648     0.03500
C2853       C  0.79770823  0.05835853  0.56699142     0.38100
C2854       C  0.63406759  0.39436607  0.60709904     0.38100
C2855       C  0.64500110  0.40444524  0.56638063     0.36500
C2856       C  0.78986684  0.05192121  0.60841550     0.36500
N2857       N  0.64669774  0.37860946  0.55600488    -0.38300
N2858       N  0.77474396  0.07496754  0.61709094    -0.38300
N2859       N  0.63168557  0.36410239  0.61268952    -0.37700
N2860       N  0.78699945  0.08429960  0.55925137    -0.37700
C2861       C  0.97335446  0.22065336  0.57238038    -0.04400
C2862       C  0.42896221  0.25156037  0.57912187    -0.01500
C2863       C  0.42097488  0.26291155  0.59875072     0.03500
C2864       C  0.98117213  0.21298439  0.61390811    -0.04400
C2865       C  0.00045161  0.24238785  0.60376650    -0.01500
C2866       C  0.99540911  0.24681531  0.58332784     0.03500
C2867       C  0.40664944  0.22163877  0.56983554     0.38100
C2868       C  0.02748089  0.26705003  0.61384697     0.38100
C2869       C  0.01305215  0.27845167  0.57345317     0.36500
C2870       C  0.38596973  0.25001576  0.60751786     0.36500
N2871       N  0.02693967  0.30381959  0.56564339    -0.38300
N2872       N  0.35771400  0.24008255  0.61427516    -0.38300
N2873       N  0.04942724  0.28646391  0.62173739    -0.37700
N2874       N  0.38957271  0.19737542  0.56233366    -0.37700
C2875       C  0.09143093  0.97730290  0.56223031    -0.04400
C2876       C  0.38787203  0.49047500  0.58099641    -0.01500
C2877       C  0.38263750  0.50090091  0.60098851     0.03500
C2878       C  0.09632319  0.96734671  0.60412309    -0.04400
C2879       C  0.09022713  0.00303768  0.59606193    -0.01500
C2880       C  0.08593608  0.00735984  0.57545438     0.03500
C2881       C  0.38963329  0.45136520  0.57540243     0.38100
C2882       C  0.08748150  0.03573590  0.60880737     0.38100
C2883       C  0.07553058  0.04291485  0.56774642     0.36500
C2884       C  0.37746891  0.47191739  0.61547038     0.36500
N2885       N  0.06707339  0.07111896  0.56148935    -0.38300
N2886       N  0.37354870  0.44913077  0.62720557    -0.38300
N2887       N  0.08518238  0.06196169  0.61885614    -0.37700
N2888       N  0.39094017  0.42015740  0.57098588    -0.37700
C2889       C  0.73811352  0.23760263  0.39630452    -0.04400
C2890       C  0.71772947  0.26355969  0.40758442    -0.01500
C2891       C  0.71597640  0.26144787  0.42844772     0.03500
C2892       C  0.73022830  0.23067814  0.43832198    -0.04400
C2893       C  0.75109554  0.20502024  0.42712894    -0.01500
C2894       C  0.75741883  0.21031061  0.40671603     0.03500
C2895       C  0.69643787  0.29115778  0.39788700     0.38100
C2896       C  0.76399099  0.17145503  0.43601499     0.38100
C2897       C  0.78504830  0.18822582  0.39672987     0.36500
C2898       C  0.69958720  0.29118799  0.43988736     0.36500
N2899       N  0.80759770  0.17105816  0.38891224    -0.38300
N2900       N  0.68712112  0.31489562  0.44928415    -0.38300
N2901       N  0.77389521  0.14422580  0.44279960    -0.37700
N2902       N  0.67861952  0.31266683  0.39018805    -0.37700
C2903       C  0.65405878  0.45341751  0.38901023    -0.04400
C2904       C  0.86272331  0.97025775  0.39409205    -0.01500
C2905       C  0.85812169  0.97786441  0.41443936     0.03500
C2906       C  0.65004422  0.45612977  0.43092858    -0.04400
C2907       C  0.64101836  0.42261795  0.42048814    -0.01500
C2908       C  0.64116252  0.42175184  0.39962285     0.03500
C2909       C  0.88079257  0.99851901  0.38190801     0.38100
C2910       C  0.63129373  0.38912361  0.43127929     0.38100
C2911       C  0.62757565  0.38832010  0.38923750     0.36500
C2912       C  0.87318733  0.01271784  0.42288687     0.36500
N2913       N  0.61594359  0.36190018  0.38098270    -0.38300
N2914       N  0.88557613  0.04032064  0.42962027    -0.38300
N2915       N  0.62309033  0.36262356  0.43998243    -0.37700
N2916       N  0.89517335  0.02114062  0.37224857    -0.37700
C2917       C  0.98120728  0.18331809  0.39609789    -0.04400
C2918       C  0.94610542  0.19589822  0.40202117    -0.01500
C2919       C  0.94027381  0.20669544  0.42177454     0.03500
C2920       C  0.96608060  0.19672155  0.43630544    -0.04400
C2921       C  0.49975151  0.25201048  0.41725327    -0.01500
C2922       C  0.49996072  0.26504256  0.39771583     0.03500
C2923       C  0.91590046  0.19697805  0.38795575     0.38100
C2924       C  0.53014410  0.22957162  0.42340511     0.38100
C2925       C  0.53505773  0.27041479  0.38732635     0.36500
C2926       C  0.90884777  0.22938225  0.42666752     0.36500
N2927       N  0.56329493  0.27578455  0.37937219    -0.38300
N2928       N  0.88372717  0.24750989  0.43043465    -0.38300
N2929       N  0.55437658  0.21127337  0.42795455    -0.37700
N2930       N  0.89157591  0.19651212  0.37681232    -0.37700
C2931       C  0.92461031  0.26067777  0.33568774    -0.04400
C2932       C  0.90523535  0.26391421  0.31790540    -0.01500
C2933       C  0.86689089  0.26955885  0.31856755     0.03500
C2934       C  0.84858023  0.26881127  0.33695104    -0.04400
C2935       C  0.86909824  0.27311658  0.35450822    -0.01500
C2936       C  0.90805511  0.27169739  0.35356076     0.03500
C2937       C  0.92400678  0.25773524  0.29922202     0.38100
C2938       C  0.85015171  0.27492885  0.37340726     0.38100
C2939       C  0.93070801  0.27791835  0.37101840     0.36500
C2940       C  0.84612690  0.27346353  0.30050595     0.36500
N2941       N  0.94883901  0.28341253  0.38491446    -0.38300
N2942       N  0.83010617  0.27743297  0.28598359    -0.38300
N2943       N  0.83493633  0.27588515  0.38847851    -0.37700
N2944       N  0.93891602  0.25283283  0.28428777    -0.37700
C2945       C  0.55956557  0.22447208  0.32759800    -0.04400
C2946       C  0.58282682  0.22579548  0.31080828    -0.01500
C2947       C  0.61913477  0.21287679  0.31197857     0.03500
C2948       C  0.63427702  0.20578568  0.33055937    -0.04400
C2949       C  0.61060171  0.20249511  0.34709156    -0.01500
C2950       C  0.57222760  0.20807576  0.34491943     0.03500
C2951       C  0.57092562  0.24300766  0.29287146     0.38100
C2952       C  0.62625707  0.19783805  0.36652410     0.38100
C2953       C  0.54615552  0.19830410  0.36050996     0.36500
C2954       C  0.64173408  0.20895565  0.29435456     0.36500
N2955       N  0.52508373  0.18946926  0.37267929    -0.38300
N2956       N  0.65924759  0.20461781  0.28019722    -0.38300
N2957       N  0.63890182  0.19454847  0.38203549    -0.37700
N2958       N  0.56271325  0.25748696  0.27852024    -0.37700
C2959       C  0.88705003  0.46585821  0.38763848    -0.04400
C2960       C  0.89723224  0.43850264  0.40118784    -0.01500
C2961       C  0.89984489  0.44721325  0.42167668     0.03500
C2962       C  0.89282330  0.48346039  0.42908618    -0.04400
C2963       C  0.59268975  0.06215157  0.40741588    -0.01500
C2964       C  0.59578720  0.06285556  0.38656211     0.03500
C2965       C  0.90490488  0.40115904  0.39422944     0.38100
C2966       C  0.59025157  0.09671198  0.41870697     0.38100
C2967       C  0.59029345  0.09766548  0.37689531     0.36500
C2968       C  0.91064100  0.41884115  0.43525604     0.36500
N2969       N  0.58486193  0.12500868  0.36889152    -0.38300
N2970       N  0.91960662  0.39645050  0.44613815    -0.38300
N2971       N  0.58861470  0.12432560  0.42768818    -0.37700
N2972       N  0.91125450  0.37130227  0.38882246    -0.37700
C2973       C  0.73225229  0.37064601  0.32843467    -0.04400
C2974       C  0.93259516  0.84024942  0.34759718    -0.01500
C2975       C  0.97071420  0.85073675  0.34651161     0.03500
C2976       C  0.80913125  0.36797724  0.32748689    -0.04400
C2977       C  0.78928069  0.36347460  0.30970368    -0.01500
C2978       C  0.75018342  0.36463315  0.31016543     0.03500
C2979       C  0.91267169  0.84387713  0.36611532     0.38100
C2980       C  0.80905138  0.36703804  0.29108993     0.38100
C2981       C  0.72996281  0.36919601  0.29193717     0.36500
C2982       C  0.98953275  0.86626948  0.36384163     0.36500
N2983       N  0.71438082  0.37354064  0.27730650    -0.38300
N2984       N  0.00402676  0.87891105  0.37776369    -0.38300
N2985       N  0.82444363  0.37048863  0.27617567    -0.37700
N2986       N  0.89731873  0.84714581  0.38104017    -0.37700
C2987       C  0.53425918  0.58479192  0.32847978    -0.04400
C2988       C  0.55538218  0.57955352  0.31122711    -0.01500
C2989       C  0.58567990  0.55596254  0.31160900     0.03500
C2990       C  0.59540445  0.53978241  0.32956367    -0.04400
C2991       C  0.76811031  0.02728829  0.34165130    -0.01500
C2992       C  0.73780783  0.05049971  0.33958376     0.03500
C2993       C  0.54257882  0.59427103  0.29280076     0.38100
C2994       C  0.77799830  0.01426091  0.36096328     0.38100
C2995       C  0.71742001  0.06361572  0.35669702     0.36500
C2996       C  0.60347642  0.54468420  0.29334302     0.36500
N2997       N  0.70118758  0.07457775  0.37025399    -0.38300
N2998       N  0.61705766  0.53512537  0.27869562    -0.38300
N2999       N  0.78537513  0.00388357  0.37646182    -0.37700
N3000       N  0.53259817  0.60628818  0.27810460    -0.37700
C3001       C  0.75267491  0.20320421  0.07286803    -0.04400
C3002       C  0.78464231  0.22184954  0.08093328    -0.01500
C3003       C  0.79025476  0.22349250  0.10160995     0.03500
C3004       C  0.76383558  0.20639318  0.11448436    -0.04400
C3005       C  0.73281822  0.18594303  0.10616387    -0.01500
C3006       C  0.72706444  0.18486911  0.08556751     0.03500
C3007       C  0.81196156  0.23908955  0.06781248     0.38100
C3008       C  0.70762913  0.16416773  0.11866283     0.38100
C3009       C  0.69455527  0.16492425  0.07739043     0.36500
C3010       C  0.82249490  0.24411342  0.10950962     0.36500
N3011       N  0.66863207  0.14902010  0.07088775    -0.38300
N3012       N  0.84806048  0.26108877  0.11566393    -0.38300
N3013       N  0.68780113  0.14645234  0.12857626    -0.37700
N3014       N  0.83367460  0.25266824  0.05722986    -0.37700
C3015       C  0.76533505  0.22554174  0.23415819    -0.04400
C3016       C  0.78627764  0.20378823  0.24687076    -0.01500
C3017       C  0.78165535  0.20674799  0.26764589     0.03500
C3018       C  0.75498989  0.23074819  0.27615029    -0.04400
C3019       C  0.73457112  0.25296799  0.26334235    -0.01500
C3020       C  0.74018000  0.25089384  0.24266119     0.03500
C3021       C  0.81158115  0.17706513  0.23858920     0.38100
C3022       C  0.70594925  0.27655095  0.27121223     0.38100
C3023       C  0.72018679  0.27563224  0.23014131     0.36500
C3024       C  0.80549446  0.18568670  0.28017186     0.36500
N3025       N  0.70431576  0.29549340  0.22021586    -0.38300
N3026       N  0.82477966  0.16903548  0.29007982    -0.38300
N3027       N  0.68252175  0.29465469  0.27746667    -0.37700
N3028       N  0.83159808  0.15560261  0.23196893    -0.37700
C3029       C  0.69964507  0.46656288  0.10857541    -0.04400
C3030       C  0.75467233  0.91218252  0.09830351    -0.01500
C3031       C  0.74480736  0.91773532  0.07839458     0.03500
C3032       C  0.71081505  0.46012252  0.06712184    -0.04400
C3033       C  0.73612685  0.48175015  0.07882771    -0.01500
C3034       C  0.73086493  0.48477368  0.09943485     0.03500
C3035       C  0.72996036  0.88889246  0.11026626     0.38100
C3036       C  0.76786526  0.50074259  0.06956080     0.38100
C3037       C  0.75875778  0.50536309  0.11111921     0.36500
C3038       C  0.71038510  0.90094491  0.07056639     0.36500
N3039       N  0.78114697  0.52167353  0.12040048    -0.38300
N3040       N  0.68314982  0.88736232  0.06419542    -0.38300
N3041       N  0.79296424  0.51601291  0.06206092    -0.37700
N3042       N  0.71023983  0.87010311  0.11968717    -0.37700
C3043       C  0.77794640  0.40169814  0.16771802    -0.04400
C3044       C  0.77943779  0.37999679  0.15033452    -0.01500
C3045       C  0.77883803  0.34114972  0.15174493     0.03500
C3046       C  0.78278036  0.32515338  0.17038545    -0.04400
C3047       C  0.79158461  0.34786059  0.18702720    -0.01500
C3048       C  0.78892213  0.38665375  0.18566214     0.03500
C3049       C  0.77531007  0.39738414  0.13137518     0.38100
C3050       C  0.79992668  0.33129010  0.20575747     0.38100
C3051       C  0.79244744  0.41049661  0.20307572     0.36500
C3052       C  0.77049184  0.31816098  0.13441550     0.36500
N3053       N  0.79537868  0.42945118  0.21701068    -0.38300
N3054       N  0.76278696  0.30067006  0.12042895    -0.38300
N3055       N  0.80667062  0.31810354  0.22070210    -0.37700
N3056       N  0.77237935  0.41093024  0.11614426    -0.37700
C3057       C  0.77640580  0.02892439  0.16892036    -0.04400
C3058       C  0.78182028  0.05179774  0.15250374    -0.01500
C3059       C  0.77419791  0.08964110  0.15399756     0.03500
C3060       C  0.75956203  0.10451539  0.17169873    -0.04400
C3061       C  0.75099105  0.08101211  0.18760485    -0.01500
C3062       C  0.75980617  0.04312234  0.18630806     0.03500
C3063       C  0.79553862  0.03660796  0.13398919     0.38100
C3064       C  0.73567485  0.09635399  0.20570377     0.38100
C3065       C  0.75433449  0.01966444  0.20332593     0.36500
C3066       C  0.78391082  0.11334743  0.13752600     0.36500
N3067       N  0.75009044  0.00131132  0.21705489    -0.38300
N3068       N  0.79288842  0.13068486  0.12399585    -0.38300
N3069       N  0.72345181  0.10856311  0.22014797    -0.37700
N3070       N  0.80620568  0.02524289  0.11902571    -0.37700
C3071       C  0.68122721  0.45951313  0.22770328    -0.04400
C3072       C  0.79688394  0.91967376  0.23776402    -0.01500
C3073       C  0.80221243  0.91808705  0.25835878     0.03500
C3074       C  0.67281740  0.45713322  0.26977735    -0.04400
C3075       C  0.70401252  0.47626821  0.26100383    -0.01500
C3076       C  0.70762875  0.47822340  0.24027706     0.03500
C3077       C  0.75893168  0.91613438  0.23045052     0.38100
C3078       C  0.73349458  0.49359988  0.27305371     0.38100
C3079       C  0.73962724  0.49886137  0.23216333     0.36500
C3080       C  0.76966853  0.91535577  0.27116937     0.36500
N3081       N  0.76520932  0.51544979  0.22593086    -0.38300
N3082       N  0.74361488  0.91307496  0.28125326    -0.38300
N3083       N  0.75713831  0.50744928  0.28251734    -0.37700
N3084       N  0.72844194  0.91285226  0.22503428    -0.37700
C3085       C  0.48894515  0.29914227  0.10735554    -0.04400
C3086       C  0.97710659  0.20037002  0.10482475    -0.01500
C3087       C  0.97973525  0.20146579  0.08403529     0.03500
C3088       C  0.49230303  0.30771374  0.06550412    -0.04400
C3089       C  0.52443274  0.29909005  0.07606863    -0.01500
C3090       C  0.52295535  0.29484194  0.09677831     0.03500
C3091       C  0.94105647  0.20451204  0.11410823     0.38100
C3092       C  0.55927716  0.29481744  0.06548631     0.38100
C3093       C  0.55687963  0.28601523  0.10692317     0.36500
C3094       C  0.94681058  0.20755947  0.07237603     0.36500
N3095       N  0.58414634  0.27922590  0.11491245    -0.38300
N3096       N  0.92058853  0.21245882  0.06305732    -0.38300
N3097       N  0.58706196  0.29160532  0.05702153    -0.37700
N3098       N  0.91206133  0.20718848  0.12137736    -0.37700
C3099       C  0.00567956  0.19334826  0.23620236    -0.04400
C3100       C  0.03397820  0.21250009  0.24752915    -0.01500
C3101       C  0.03419223  0.21053352  0.26838118     0.03500
C3102       C  0.00719222  0.18797005  0.27841996    -0.04400
C3103       C  0.48141698  0.25285608  0.25803491    -0.01500
C3104       C  0.48644998  0.25455899  0.23731301     0.03500
C3105       C  0.06302373  0.23508545  0.23800948     0.38100
C3106       C  0.48785525  0.21826226  0.26796466     0.38100
C3107       C  0.50282858  0.22375572  0.22674282     0.36500
C3108       C  0.06261737  0.23208779  0.27928237     0.36500
N3109       N  0.51689856  0.19947919  0.21853273    -0.38300
N3110       N  0.08528291  0.24949612  0.28783397    -0.38300
N3111       N  0.49305473  0.19063203  0.27583909    -0.37700
N3112       N  0.08646589  0.25302113  0.23063259    -0.37700
C3113       C  0.45026466  0.57562607  0.10568143    -0.04400
C3114       C  0.48745811  0.57739889  0.09817541    -0.01500
C3115       C  0.49458364  0.57333273  0.07770396     0.03500
C3116       C  0.46495045  0.57018893  0.06409696    -0.04400
C3117       C  0.04132103  0.94675200  0.07995390    -0.01500
C3118       C  0.05253630  0.94283778  0.09971248     0.03500
C3119       C  0.51900411  0.58339607  0.11130216     0.38100
C3120       C  0.00501280  0.96098755  0.07565084     0.38100
C3121       C  0.02814554  0.95548275  0.11538580     0.36500
C3122       C  0.53274662  0.57294101  0.07053377     0.36500
N3123       N  0.00866085  0.96584385  0.12778913    -0.38300
N3124       N  0.56316667  0.57294929  0.06481425    -0.38300
N3125       N  0.97611183  0.97242986  0.07220202    -0.37700
N3126       N  0.54421344  0.58888202  0.12166858    -0.37700
C3127       C  0.94712199  0.37287358  0.17007677    -0.04400
C3128       C  0.49113821  0.46243512  0.18397458    -0.01500
C3129       C  0.49680517  0.42387690  0.18448716     0.03500
C3130       C  0.96926884  0.29935235  0.17630336    -0.04400
C3131       C  0.93537682  0.30564990  0.16654147    -0.01500
C3132       C  0.92557432  0.34203184  0.16244162     0.03500
C3133       C  0.49561308  0.48523603  0.20171447     0.38100
C3134       C  0.90951174  0.27510176  0.16104370     0.38100
C3135       C  0.89382345  0.34712703  0.14963162     0.36500
C3136       C  0.50981131  0.40721591  0.20234877     0.36500
N3137       N  0.86869935  0.35093011  0.13932681    -0.38300
N3138       N  0.52074365  0.39411162  0.21655606    -0.38300
N3139       N  0.88822757  0.25109666  0.15714272    -0.37700
N3140       N  0.49924788  0.50325890  0.21594549    -0.37700
C3141       C  0.06529803  0.01561752  0.16938951    -0.04400
C3142       C  0.09135157  0.04654282  0.16916767    -0.01500
C3143       C  0.07916532  0.08315339  0.17092308     0.03500
C3144       C  0.04077982  0.09000401  0.17328585    -0.04400
C3145       C  0.47902191  0.15465253  0.17606711    -0.01500
C3146       C  0.50037030  0.12243948  0.17582400     0.03500
C3147       C  0.13132532  0.04143295  0.16814276     0.38100
C3148       C  0.45478596  0.16282225  0.19258782     0.38100
C3149       C  0.50083370  0.09903884  0.19300330     0.36500
C3150       C  0.10688694  0.11364368  0.17035379     0.36500
N3151       N  0.50148659  0.08064681  0.20682153    -0.38300
N3152       N  0.12856576  0.13828217  0.17007760    -0.38300
N3153       N  0.43504856  0.16895797  0.20569098    -0.37700
N3154       N  0.16309751  0.03715995  0.16762258    -0.37700
C3155       C  0.88503656  0.45454923  0.26728128    -0.04400
C3156       C  0.61086711  0.06617053  0.24430747    -0.01500
C3157       C  0.60825564  0.06462599  0.22343695     0.03500
C3158       C  0.88709949  0.46391891  0.22513078    -0.04400
C3159       C  0.89460656  0.42914564  0.23354671    -0.01500
C3160       C  0.89579126  0.42512189  0.25444102     0.03500
C3161       C  0.60160907  0.10049611  0.25449146     0.38100
C3162       C  0.90063331  0.39718803  0.22074204     0.38100
C3163       C  0.90729422  0.39030920  0.26251540     0.36500
C3164       C  0.59960528  0.09784816  0.21275340     0.36500
N3165       N  0.91666436  0.36245524  0.26882081    -0.38300
N3166       N  0.59296195  0.12439729  0.20423293    -0.38300
N3167       N  0.90456588  0.37111686  0.21078494    -0.37700
N3168       N  0.59383887  0.12788656  0.26249520    -0.37700
O3169       O  0.46693561  0.59138367  0.13947104    -0.70800
O3170       O  0.62511575  0.04768700  0.17940494    -0.71100
O3171       O  0.64524603  0.00582123  0.14758039    -0.70900
O3172       O  0.43695459  0.63760735  0.16593599    -0.70900
O3173       O  0.85957160  0.51029810  0.15990349    -0.70900
O3174       O  0.09321532  0.85190151  0.15911733    -0.70900
O3175       O  0.86755261  0.46217574  0.19067221    -0.70800
O3176       O  0.07014979  0.90515861  0.13562855    -0.71000
V3177       V  0.61342058  0.04678215  0.15192891     1.35200
V3178       V  0.07545209  0.90033029  0.16311390     1.35200
C3179       C  0.44285435  0.57717346  0.12771405     0.78400
C3180       C  0.10487189  0.90796468  0.20047757     0.78500
C3181       C  0.63064122  0.97322157  0.14790179     0.78300
C3182       C  0.40224757  0.63962479  0.16333630     0.78300
O3183       O  0.52704508  0.78327729  0.12688492    -0.70800
O3184       O  0.54350002  0.78368541  0.18196416    -0.71100
O3185       O  0.49094488  0.75438545  0.15797495    -0.70900
O3186       O  0.58024882  0.81244617  0.15060637    -0.70900
O3187       O  0.05661484  0.73491181  0.16141105    -0.70900
O3188       O  0.95870367  0.69173876  0.16160744    -0.70900
O3189       O  0.00961969  0.71161833  0.18925591    -0.70800
O3190       O  0.00707790  0.71547442  0.13363063    -0.71000
V3191       V  0.53482494  0.78442052  0.15446859     1.35200
V3192       V  0.00839134  0.71230836  0.16146268     1.35200
C3193       C  0.51099356  0.80959657  0.11871592     0.78400
C3194       C  0.02336993  0.68452830  0.19788001     0.78500
C3195       C  0.95388811  0.65674400  0.16104230     0.78300
C3196       C  0.08484137  0.71527442  0.15937184     0.78300
O3197       O  0.83004402  0.93195713  0.13483258    -0.70800
O3198       O  0.84664023  0.93712436  0.19066743    -0.71100
O3199       O  0.85511854  0.88457646  0.16238917    -0.70900
O3200       O  0.66531114  0.51868750  0.16989650    -0.70900
O3201       O  0.62917020  0.46947409  0.16479011    -0.70900
O3202       O  0.79718509  0.86521182  0.16500230    -0.70900
O3203       O  0.79136350  0.91279491  0.19517430    -0.70800
O3204       O  0.77223391  0.91637890  0.14024512    -0.71000
V3205       V  0.83762961  0.93406681  0.16282868     1.35200
V3206       V  0.78299311  0.91481362  0.16763935     1.35200
C3207       C  0.79763070  0.92485994  0.12794757     0.78400
C3208       C  0.82178342  0.92510257  0.20257250     0.78500
C3209       C  0.83129318  0.85805002  0.16411867     0.78300
C3210       C  0.63318261  0.50438988  0.16660109     0.78300
O3211       O  0.73674797  0.66651743  0.12840170    -0.70800
O3212       O  0.75045518  0.63649514  0.18148177    -0.71100
O3213       O  0.70161229  0.61709172  0.15211897    -0.70900
O3214       O  0.78432295  0.68634470  0.15775284    -0.70900
O3215       O  0.74539085  0.72864266  0.16630990    -0.70900
O3216       O  0.66474913  0.65894339  0.16360842    -0.70900
O3217       O  0.71490254  0.68049081  0.19171731    -0.70800
O3218       O  0.69673503  0.70695802  0.13806987    -0.71000
V3219       V  0.74242538  0.65228472  0.15508213     1.35200
V3220       V  0.70613507  0.69286510  0.16472602     1.35200
C3221       C  0.71453031  0.69160413  0.12413737     0.78400
C3222       C  0.73650689  0.65450312  0.19572898     0.78500
C3223       C  0.66913305  0.62632415  0.15714181     0.78300
C3224       C  0.77845992  0.71942756  0.16330409     0.78300
O3225       O  0.08329433  0.92278212  0.35346506    -0.70800
O3226       O  0.09470504  0.90557817  0.29812448    -0.71100
O3227       O  0.67260487  0.01630747  0.31570378    -0.70900
O3228       O  0.05227548  0.87376548  0.32691925    -0.70900
O3229       O  0.82730273  0.43131942  0.32804542    -0.70900
O3230       O  0.46936646  0.59725859  0.32871275    -0.70900
O3231       O  0.86168041  0.46973066  0.29962771    -0.70800
O3232       O  0.86178104  0.47490903  0.35542030    -0.71000
V3233       V  0.08773570  0.91449143  0.32573112     1.35200
V3234       V  0.86287037  0.47122319  0.32752064     1.35200
C3235       C  0.06136452  0.94673589  0.36021137     0.78400
C3236       C  0.07578608  0.92266222  0.28568482     0.78500
C3237       C  0.68411197  0.04969380  0.31811034     0.78300
C3238       C  0.01826044  0.88026433  0.32480853     0.78300
O3239       O  0.05665594  0.68671799  0.34935105    -0.70800
O3240       O  0.05176771  0.66997455  0.29362799    -0.71100
O3241       O  0.52500885  0.72698798  0.30924633    -0.70900
O3242       O  0.00350947  0.66590900  0.32340633    -0.70900
O3243       O  0.99148650  0.72442724  0.32004525    -0.70900
O3244       O  0.58009502  0.75454128  0.30922429    -0.70900
O3245       O  0.03947442  0.72820079  0.29013199    -0.70800
O3246       O  0.04604584  0.74470098  0.34484313    -0.71000
V3247       V  0.05427914  0.67891898  0.32140328     1.35200
V3248       V  0.04332996  0.73498835  0.31754446     1.35200
C3249       C  0.05138567  0.71887969  0.35669652     0.78400
C3250       C  0.04361817  0.69641239  0.28251951     0.78500
C3251       C  0.55979097  0.72516030  0.30737172     0.78300
C3252       C  0.98027172  0.69094399  0.32214514     0.78300
O3253       O  0.68349992  0.47059447  0.35858945    -0.70800
O3254       O  0.68921804  0.47639695  0.30301558    -0.71100
O3255       O  0.65471783  0.51412376  0.33152620    -0.70900
O3256       O  0.71806736  0.43331051  0.32997684    -0.70900
O3257       O  0.85190635  0.86309096  0.32871445    -0.70900
O3258       O  0.79370331  0.94922941  0.32593437    -0.70900
O3259       O  0.82111718  0.90117206  0.29926972    -0.70800
O3260       O  0.82348610  0.91151191  0.35503423    -0.71000
V3261       V  0.68543762  0.47275344  0.33074654     1.35200
V3262       V  0.82351031  0.90683740  0.32713666     1.35200
C3263       C  0.84947107  0.93001220  0.36365712     0.78400
C3264       C  0.84358083  0.91966820  0.28845539     0.78500
C3265       C  0.80926526  0.98144121  0.32550779     0.78300
C3266       C  0.88693573  0.86693869  0.32728900     0.78300
O3267       O  0.75223737  0.63219210  0.34784902    -0.70800
O3268       O  0.75614324  0.61956737  0.29161027    -0.71100
O3269       O  0.80674661  0.62772640  0.32104066    -0.70900
O3270       O  0.70089399  0.62417569  0.31818871    -0.70900
O3271       O  0.70300145  0.68434044  0.31479786    -0.70900
O3272       O  0.80688214  0.68804169  0.31833322    -0.70900
O3273       O  0.75819659  0.67965825  0.28859686    -0.70800
O3274       O  0.75267412  0.69184808  0.34447690    -0.71000
V3275       V  0.75395257  0.62696880  0.31966604     1.35200
V3276       V  0.75498127  0.68469602  0.31663396     1.35200
C3277       C  0.75366965  0.66439501  0.35589724     0.78400
C3278       C  0.75768548  0.64755964  0.28046650     0.78500
C3279       C  0.82436274  0.65885538  0.32059486     0.78300
C3280       C  0.68441259  0.65390842  0.31498570     0.78300
N3281       N  0.44201713  0.49465387  0.51839287    -0.35700
N3282       N  0.85377246  0.47438799  0.52049925    -0.56200
N3283       N  0.03366925  0.99192774  0.47423150    -0.35700
N3284       N  0.62966327  0.01198118  0.46881959    -0.56200
C3285       C  0.43144138  0.50934996  0.53610519     0.27900
C3286       C  0.47985212  0.50088143  0.51634301     0.27900
C3287       C  0.99694585  0.99782033  0.47885012     0.27900
C3288       C  0.03887256  0.99880951  0.45482579     0.27900
C3289       C  0.86565796  0.45908864  0.53731854     0.36500
C3290       C  0.81703251  0.46384157  0.51795725     0.36500
C3291       C  0.66754508  0.01272849  0.47209424     0.36500
C3292       C  0.62423356  0.02354591  0.45007566     0.38100
C3293       C  0.46287812  0.52504669  0.54537156    -0.20900
C3294       C  0.49280221  0.52064933  0.53282943    -0.20900
C3295       C  0.97973303  0.01059507  0.46221455    -0.20900
C3296       C  0.00504039  0.00887268  0.44701026    -0.20900
C3297       C  0.83597180  0.43914588  0.54583753    -0.22000
C3298       C  0.80549383  0.44179391  0.53353715    -0.22000
C3299       C  0.68541116  0.02809752  0.45586165    -0.22000
C3300       C  0.65864154  0.03346008  0.44187376    -0.22000
C3301       C  0.90129255  0.46651295  0.54627562    -0.17400
C3302       C  0.68552913  0.00381846  0.49043660    -0.17400
C3303       C  0.07274991  0.99501683  0.44375602    -0.17300
C3304       C  0.97778940  0.98829599  0.49698575    -0.17300
H3305       H  0.46420612  0.53904620  0.55962686     0.15600
H3306       H  0.52067269  0.53226936  0.53530334     0.15600
H3307       H  0.95120741  0.01869885  0.46073665     0.15600
H3308       H  0.99824267  0.01444769  0.43193403     0.15600
H3309       H  0.83619305  0.42430184  0.55957667     0.13800
H3310       H  0.77819805  0.42867087  0.53575388     0.13800
H3311       H  0.71461323  0.03611326  0.45437372     0.13800
H3312       H  0.66391116  0.04513750  0.42748498     0.13800
H3313       H  0.42447320  0.47898905  0.50892530     0.27100
H3314       H  0.05359576  0.97932010  0.48260029     0.27100
N3315       N  0.98957144  0.72145966  0.50786156    -0.35700
N3316       N  0.58152124  0.74948512  0.50477099    -0.56200
N3317       N  0.58336580  0.73976080  0.46488995    -0.35700
N3318       N  0.98955277  0.73583879  0.46856393    -0.56200
C3319       C  0.00085097  0.73262781  0.52627415     0.27900
C3320       C  0.95251147  0.72943399  0.50568308     0.27900
C3321       C  0.62030459  0.74743069  0.46897685     0.27900
C3322       C  0.57521810  0.75515274  0.44741632     0.27900
C3323       C  0.56824036  0.74446510  0.52318405     0.36500
C3324       C  0.61552223  0.73385611  0.50362538     0.36500
C3325       C  0.95137132  0.73377956  0.46996542     0.36500
C3326       C  0.99854800  0.74395094  0.44965021     0.36500
C3327       C  0.97073970  0.74794262  0.53593195    -0.20900
C3328       C  0.94107370  0.74702155  0.52293699    -0.20900
C3329       C  0.63581632  0.76811946  0.45380013    -0.20900
C3330       C  0.60743604  0.77348633  0.44042434    -0.20900
C3331       C  0.59384939  0.72532553  0.53398306    -0.22000
C3332       C  0.62327251  0.71773287  0.52146320    -0.22000
C3333       C  0.93687702  0.74470429  0.45214790    -0.22000
C3334       C  0.96621114  0.74909167  0.43917844    -0.22000
C3335       C  0.03600820  0.72597879  0.53555783    -0.17400
C3336       C  0.93045373  0.72511140  0.48772995    -0.17400
C3337       C  0.03500451  0.74846215  0.44127205    -0.17300
C3338       C  0.63909444  0.73667779  0.48658853    -0.17300
H3339       H  0.97040395  0.75954486  0.55077059     0.15600
H3340       H  0.91459028  0.75948924  0.52574337     0.15600
H3341       H  0.66430971  0.77887326  0.45267608     0.15600
H3342       H  0.61048875  0.78845861  0.42677622     0.15600
H3343       H  0.59161128  0.71779854  0.54933390     0.13800
H3344       H  0.64757602  0.70251463  0.52522254     0.13800
H3345       H  0.90847770  0.75102384  0.44880640     0.13800
H3346       H  0.96409972  0.75767058  0.42402305     0.13800
H3347       H  0.00575927  0.70595750  0.49816625     0.27100
H3348       H  0.56519911  0.72193977  0.47266678     0.27100
N3349       N  0.87422332  0.99006313  0.51659133    -0.35700
N3350       N  0.78537323  0.00187238  0.51415131    -0.56200
N3351       N  0.78984338  0.98404924  0.47362537    -0.35700
N3352       N  0.87751974  0.97687512  0.47657304    -0.56200
C3353       C  0.86325076  0.00609295  0.53370366     0.27900
C3354       C  0.91156451  0.99832651  0.51384385     0.27900
C3355       C  0.75149278  0.98472145  0.47516477     0.27900
C3356       C  0.79887926  0.96872168  0.45584239     0.27900
C3357       C  0.79304706  0.99276113  0.53302028     0.36500
C3358       C  0.74809039  0.99469443  0.51091416     0.36500
C3359       C  0.91337355  0.96887044  0.48122327     0.36500
C3360       C  0.86916112  0.95875257  0.45942817     0.36500
C3361       C  0.89405450  0.02440702  0.54232978    -0.20900
C3362       C  0.92417021  0.02024506  0.52966063    -0.20900
C3363       C  0.73679660  0.96774585  0.45823314    -0.20900
C3364       C  0.76600859  0.95975539  0.44583784    -0.20900
C3365       C  0.76044337  0.97926037  0.54185488    -0.22000
C3366       C  0.73257763  0.97958396  0.52789341    -0.22000
C3367       C  0.92744596  0.94505746  0.46704880    -0.22000
C3368       C  0.89995600  0.93926703  0.45314887    -0.22000
C3369       C  0.82794950  0.99926115  0.54308760    -0.17400
C3370       C  0.93378397  0.98485810  0.49762601    -0.17400
C3371       C  0.83541906  0.96044443  0.44837469    -0.17300
C3372       C  0.72943409  0.99674213  0.49208164    -0.17300
H3373       H  0.89481222  0.03892839  0.55646128     0.15600
H3374       H  0.95218431  0.03152245  0.53208005     0.15600
H3375       H  0.70794887  0.96010171  0.45522400     0.15600
H3376       H  0.76290965  0.94668051  0.43143018     0.15600
H3377       H  0.75719433  0.96929585  0.55675161     0.13800
H3378       H  0.70461590  0.96792950  0.52984737     0.13800
H3379       H  0.95483277  0.93349649  0.46661116     0.13800
H3380       H  0.90227211  0.92214640  0.43992981     0.13800
H3381       H  0.85741259  0.97050895  0.50890830     0.27100
H3382       H  0.80991238  0.99525763  0.48328939     0.27100
N3383       N  0.73864212  0.72121198  0.50742785    -0.35700
N3384       N  0.73829689  0.71565985  0.46715649    -0.56200
N3385       N  0.82651826  0.71192810  0.46723921    -0.35700
N3386       N  0.82835515  0.72338096  0.50829318    -0.56200
C3387       C  0.70537962  0.73741649  0.50398779     0.27900
C3388       C  0.75109549  0.73257605  0.52537507     0.27900
C3389       C  0.81672143  0.69537064  0.44964993     0.27900
C3390       C  0.86422276  0.70795802  0.47019294     0.27900
C3391       C  0.70048355  0.71437441  0.47011468     0.36500
C3392       C  0.74484897  0.69731655  0.44999747     0.36500
C3393       C  0.81672437  0.71027315  0.52601606     0.36500
C3394       C  0.86481799  0.71461244  0.50579331     0.36500
C3395       C  0.69744536  0.76028501  0.52004823    -0.20900
C3396       C  0.72550828  0.75618770  0.53376570    -0.20900
C3397       C  0.84838189  0.68044322  0.44136061    -0.20900
C3398       C  0.87746242  0.68696015  0.45445682    -0.20900
C3399       C  0.68311451  0.69514341  0.45469359    -0.22000
C3400       C  0.71087348  0.68470152  0.44196651    -0.22000
C3401       C  0.84572646  0.69229687  0.53473736    -0.22000
C3402       C  0.87563208  0.69430707  0.52185312    -0.22000
C3403       C  0.68212684  0.72981750  0.48698582    -0.17400
C3404       C  0.78170656  0.71729077  0.53527171    -0.17400
C3405       C  0.88579166  0.71866369  0.48776247    -0.17300
C3406       C  0.78024075  0.69214898  0.44066036    -0.17300
H3407       H  0.67357642  0.77749198  0.52194942     0.15600
H3408       H  0.72693972  0.76910386  0.54830087     0.15600
H3409       H  0.85008629  0.66469555  0.42765136     0.15600
H3410       H  0.90505339  0.67620258  0.45279766     0.15600
H3411       H  0.65371988  0.68814302  0.45302671     0.13800
H3412       H  0.70642617  0.66864829  0.42846348     0.13800
H3413       H  0.84523510  0.67863077  0.54883011     0.13800
H3414       H  0.90167560  0.68063733  0.52371194     0.13800
H3415       H  0.75031503  0.69932329  0.49954428     0.27100
H3416       H  0.80837827  0.72737992  0.47578918     0.27100
N3417       N  0.48352693  0.60105019  0.97215551    -0.35700
N3418       N  0.48167643  0.60659459  0.01248564    -0.56200
N3419       N  0.51879665  0.01358155  0.00713793    -0.35700
N3420       N  0.50377321  0.01610260  0.96756252    -0.56200
C3421       C  0.49879840  0.63632437  0.97426903     0.27900
C3422       C  0.49726678  0.58582724  0.95538195     0.27900
C3423       C  0.51128302  0.02329117  0.02616037     0.27900
C3424       C  0.50569999  0.97750312  0.00397002     0.27900
C3425       C  0.49017670  0.64373278  0.00948129     0.36500
C3426       C  0.48380829  0.60036137  0.03214932     0.36500
C3427       C  0.49255477  0.02657743  0.94950467     0.36500
C3428       C  0.49956797  0.97806158  0.96839869     0.36500
C3429       C  0.52417291  0.64241793  0.95905437    -0.20900
C3430       C  0.52192752  0.61129108  0.94671277    -0.20900
C3431       C  0.49303487  0.99336775  0.03515511    -0.20900
C3432       C  0.48800680  0.96550777  0.02106651    -0.20900
C3433       C  0.50052422  0.66001750  0.02741920    -0.22000
C3434       C  0.49493463  0.63352088  0.04162496    -0.22000
C3435       C  0.47983399  0.99518476  0.93897168    -0.22000
C3436       C  0.48314824  0.96496832  0.95101314    -0.22000
C3437       C  0.49191527  0.66156013  0.99041893    -0.17400
C3438       C  0.48247422  0.55281219  0.94609814    -0.17400
C3439       C  0.50683166  0.95639493  0.98559496    -0.17300
C3440       C  0.52433062  0.05648694  0.03631651    -0.17300
H3441       H  0.54235763  0.66677641  0.95697951     0.15600
H3442       H  0.53677298  0.60767179  0.93292645     0.15600
H3443       H  0.48338034  0.99185779  0.05024616     0.15600
H3444       H  0.47234829  0.93956048  0.02322502     0.15600
H3445       H  0.51259783  0.68758917  0.03022144     0.13800
H3446       H  0.49947770  0.63832845  0.05722589     0.13800
H3447       H  0.46887965  0.99415560  0.92412318     0.13800
H3448       H  0.47283604  0.93701269  0.94746293     0.13800
H3449       H  0.46123259  0.58932599  0.98013662     0.27100
H3450       H  0.53560163  0.02969769  0.99774168     0.27100
N3451       N  0.50317501  0.85214033  0.96484334    -0.35700
N3452       N  0.49903311  0.85608217  0.00554385    -0.56200
N3453       N  0.50034411  0.76526278  0.00683544    -0.35700
N3454       N  0.50424822  0.76167619  0.96682992    -0.56200
C3455       C  0.51266757  0.88953044  0.96736805     0.27900
C3456       C  0.51734540  0.84014178  0.94734821     0.27900
C3457       C  0.48410074  0.78039290  0.02293108     0.27900
C3458       C  0.48476352  0.73037100  0.00391108     0.27900
C3459       C  0.51259002  0.89148263  0.00274096     0.36500
C3460       C  0.51124422  0.84534355  0.02326765     0.36500
C3461       C  0.50011226  0.76980812  0.94751645     0.36500
C3462       C  0.49535170  0.72438759  0.96912422     0.36500
C3463       C  0.53396408  0.90063971  0.95127593    -0.20900
C3464       C  0.53609420  0.87017571  0.93858870    -0.20900
C3465       C  0.45754777  0.75524936  0.03032125    -0.20900
C3466       C  0.45687628  0.72433407  0.01785565    -0.20900
C3467       C  0.53561974  0.90216952  0.01839772    -0.22000
C3468       C  0.53374771  0.87352973  0.03166182    -0.22000
C3469       C  0.48729460  0.73774303  0.93753323    -0.22000
C3470       C  0.48309483  0.70979255  0.95113100    -0.22000
C3471       C  0.50768088  0.91198852  0.98511077    -0.17400
C3472       C  0.51133337  0.80401476  0.93805613    -0.17400
C3473       C  0.49327152  0.70564340  0.98788716    -0.17300
C3474       C  0.49794916  0.81285630  0.03298570    -0.17300
H3475       H  0.54795671  0.92751252  0.94919448     0.15600
H3476       H  0.55063345  0.87006616  0.92457877     0.15600
H3477       H  0.44055085  0.75888619  0.04338811     0.15600
H3478       H  0.43822341  0.70006446  0.01902857     0.15600
H3479       H  0.55257193  0.92761193  0.01998680     0.13800
H3480       H  0.54749782  0.87335281  0.04583022     0.13800
H3481       H  0.48065690  0.73488748  0.92201732     0.13800
H3482       H  0.47018692  0.68263596  0.94808345     0.13800
H3483       H  0.48520631  0.83578954  0.97348716     0.27100
H3484       H  0.52399435  0.77669737  0.99985621     0.27100
N3485       N  0.72408611  0.49193764  0.97742529    -0.35700
N3486       N  0.74667612  0.90764259  0.97444088    -0.56200
N3487       N  0.74714082  0.90178423  0.01449482    -0.35700
N3488       N  0.72528971  0.49883677  0.01704800    -0.56200
C3489       C  0.73784326  0.47702640  0.96064646     0.27900
C3490       C  0.73701610  0.52833493  0.97923725     0.27900
C3491       C  0.75441125  0.86570332  0.00906867     0.27900
C3492       C  0.76353405  0.90942878  0.03215113     0.27900
C3493       C  0.73813930  0.92093163  0.95655624     0.36500
C3494       C  0.73557716  0.87071045  0.97482439     0.36500
C3495       C  0.71525795  0.53416401  0.01268362     0.36500
C3496       C  0.70850476  0.48928605  0.03417401     0.36500
C3497       C  0.75948899  0.50437929  0.95127021    -0.20900
C3498       C  0.75980160  0.53628530  0.96319953    -0.20900
C3499       C  0.77552860  0.85040418  0.02364245    -0.20900
C3500       C  0.78126889  0.87770667  0.03807655    -0.20900
C3501       C  0.72156023  0.89214049  0.94531073    -0.22000
C3502       C  0.71901681  0.86082760  0.95698839    -0.22000
C3503       C  0.69170211  0.54703459  0.02727213    -0.22000
C3504       C  0.68794116  0.51902946  0.04097197    -0.22000
C3505       C  0.74946645  0.95691351  0.94937547    -0.17400
C3506       C  0.72729625  0.55330984  0.99519960    -0.17400
C3507       C  0.75918356  0.94222069  0.04429059    -0.17300
C3508       C  0.74240968  0.84675351  0.99113677    -0.17300
H3509       H  0.77321294  0.50170345  0.93710148     0.15600
H3510       H  0.77477116  0.56230698  0.96022676     0.15600
H3511       H  0.78609669  0.82260537  0.02379647     0.15600
H3512       H  0.79638866  0.87427637  0.05165068     0.15600
H3513       H  0.71218171  0.89358859  0.93021010     0.13800
H3514       H  0.70675398  0.83393605  0.95267939     0.13800
H3515       H  0.67834322  0.57352286  0.02792924     0.13800
H3516       H  0.67202901  0.52049170  0.05453974     0.13800
H3517       H  0.70289689  0.47881597  0.98565062     0.27100
H3518       H  0.72874905  0.91930662  0.00774477     0.27100
N3519       N  0.73168957  0.74610364  0.01102427    -0.35700
N3520       N  0.72452768  0.65728202  0.01250571    -0.56200
N3521       N  0.73925556  0.65339632  0.97248853    -0.35700
N3522       N  0.73855423  0.74303303  0.97057155    -0.56200
C3523       C  0.71506370  0.73765354  0.02842708     0.27900
C3524       C  0.72464750  0.78239207  0.00686941     0.27900
C3525       C  0.72680675  0.61721867  0.97569599     0.27900
C3526       C  0.73200099  0.66188592  0.95350248     0.27900
C3527       C  0.73108639  0.66970214  0.03120222     0.36500
C3528       C  0.73473127  0.62094103  0.01128477     0.36500
C3529       C  0.74840841  0.78018236  0.97305152     0.36500
C3530       C  0.75133909  0.73141747  0.95271417     0.36500
C3531       C  0.69711240  0.76884314  0.03547097    -0.20900
C3532       C  0.70293396  0.79680318  0.02190515    -0.20900
C3533       C  0.71094129  0.60305711  0.95843943    -0.20900
C3534       C  0.71497760  0.63054764  0.94446680    -0.20900
C3535       C  0.74562840  0.64112808  0.04194815    -0.22000
C3536       C  0.74868240  0.61076345  0.02932084    -0.22000
C3537       C  0.76807364  0.79195743  0.95656721    -0.22000
C3538       C  0.76910677  0.76167895  0.94362223    -0.22000
C3539       C  0.72016599  0.70464284  0.03942600    -0.17400
C3540       C  0.73861710  0.80266066  0.99008689    -0.17400
C3541       C  0.74362951  0.69547304  0.94348581    -0.17300
C3542       C  0.73006090  0.59746007  0.99396767    -0.17300
H3543       H  0.68200893  0.77145468  0.04924411     0.15600
H3544       H  0.69250837  0.82462468  0.02308979     0.15600
H3545       H  0.69757839  0.57584504  0.95605992     0.15600
H3546       H  0.70611231  0.62756633  0.92928386     0.15600
H3547       H  0.75332536  0.64208696  0.05736692     0.13800
H3548       H  0.75995249  0.58433581  0.03308827     0.13800
H3549       H  0.78048596  0.81937118  0.95402578     0.13800
H3550       H  0.78171905  0.76200206  0.92910553     0.13800
H3551       H  0.75059773  0.72909319  0.00389347     0.27100
H3552       H  0.75535718  0.67055971  0.98195082     0.27100
O3553       O  0.44819308  0.52851935  0.85048031    -0.70800
O3554       O  0.42608895  0.53583585  0.79561224    -0.71100
O3555       O  0.48340560  0.55738212  0.81917572    -0.70900
O3556       O  0.53617741  0.02169277  0.81841893    -0.70900
O3557       O  0.04748336  0.93605734  0.82426952    -0.70900
O3558       O  0.94216715  0.47195135  0.82880705    -0.70900
O3559       O  0.90332454  0.42845487  0.80303720    -0.70800
O3560       O  0.91864035  0.42922156  0.85871403    -0.71000
V3561       V  0.43669752  0.53296925  0.82310862     1.35200
V3562       V  0.91173185  0.42788566  0.83079922     1.35200
C3563       C  0.44052204  0.55459357  0.86253113     0.78400
C3564       C  0.92533263  0.41203624  0.79143801     0.78500
C3565       C  0.48530045  0.59230157  0.82060192     0.78300
C3566       C  0.50396707  0.00631075  0.81763810     0.78300
O3567       O  0.56187684  0.79611558  0.84347372    -0.70800
O3568       O  0.56690641  0.79044268  0.78724214    -0.71100
O3569       O  0.55010740  0.84257002  0.81434487    -0.70900
O3570       O  0.57951308  0.74308065  0.81641921    -0.70900
O3571       O  0.01027227  0.62956670  0.81861428    -0.70900
O3572       O  0.00979407  0.73423418  0.81847825    -0.70900
O3573       O  0.01467212  0.68084090  0.79052654    -0.70800
O3574       O  0.00594147  0.68291718  0.84650077    -0.71000
V3575       V  0.56357468  0.79264169  0.81531010     1.35200
V3576       V  0.01136063  0.68183873  0.81852623     1.35200
C3577       C  0.53200439  0.78699692  0.85251525     0.78400
C3578       C  0.04631622  0.68102943  0.78221665     0.78500
C3579       C  0.03998019  0.75302250  0.82004834     0.78300
C3580       C  0.04014135  0.61279574  0.82065097     0.78300
O3581       O  0.75029475  0.98949814  0.85374014    -0.70800
O3582       O  0.75588961  0.97828088  0.79810734    -0.71100
O3583       O  0.73462542  0.93477330  0.82783325    -0.70900
O3584       O  0.69500416  0.48609445  0.82469577    -0.70900
O3585       O  0.73476403  0.44191174  0.82294992    -0.70900
O3586       O  0.79157887  0.91629425  0.82854660    -0.70900
O3587       O  0.81363951  0.96398294  0.80030984    -0.70800
O3588       O  0.80531567  0.96805528  0.85639138    -0.71000
V3589       V  0.75434877  0.98396062  0.82593201     1.35200
V3590       V  0.80879253  0.96659685  0.82832365     1.35200
C3591       C  0.77564650  0.97817778  0.86476841     0.78400
C3592       C  0.78578401  0.96981632  0.78952419     0.78500
C3593       C  0.75694765  0.90868820  0.82865366     0.78300
C3594       C  0.72770662  0.47574793  0.82139237     0.78300
O3595       O  0.72212334  0.67447832  0.84651762    -0.70800
O3596       O  0.72123171  0.68200517  0.79060589    -0.71100
O3597       O  0.73331138  0.62794860  0.81546745    -0.70900
O3598       O  0.71002233  0.72937100  0.82155449    -0.70900
O3599       O  0.76938559  0.74401021  0.82132734    -0.70900
O3600       O  0.79259590  0.64291173  0.81651698    -0.70900
O3601       O  0.78044142  0.69609729  0.79064519    -0.70800
O3602       O  0.78066331  0.69086131  0.84706752    -0.71000
V3603       V  0.72282498  0.67873877  0.81853410     1.35200
V3604       V  0.77963259  0.69324429  0.81884161     1.35200
C3605       C  0.75100789  0.68275567  0.85658928     0.78400
C3606       C  0.75085590  0.68870896  0.78091521     0.78500
C3607       C  0.76676411  0.61840954  0.81468998     0.78300
C3608       C  0.73616001  0.75373637  0.82315469     0.78300
O3609       O  0.08845876  0.93286174  0.63503551    -0.70800
O3610       O  0.09443770  0.92678525  0.69189092    -0.71100
O3611       O  0.04256666  0.94645973  0.66597899    -0.70900
O3612       O  0.56511829  0.99631979  0.65847951    -0.70900
O3613       O  0.43940337  0.54302597  0.66575820    -0.70900
O3614       O  0.88311563  0.47469516  0.67081290    -0.70900
O3615       O  0.93427229  0.45640257  0.69721480    -0.70800
O3616       O  0.93190221  0.46583933  0.64149891    -0.71000
V3617       V  0.09191424  0.93032141  0.66348300     1.35200
V3618       V  0.93293155  0.45986094  0.66925167     1.35200
C3619       C  0.92238068  0.43867487  0.63022578     0.78400
C3620       C  0.92372082  0.42638323  0.70535270     0.78500
C3621       C  0.85746436  0.45008060  0.66850579     0.78300
C3622       C  0.42907854  0.50935224  0.66800150     0.78300
O3623       O  0.04657587  0.73495959  0.63356239    -0.70800
O3624       O  0.05375693  0.72268920  0.68909203    -0.71100
O3625       O  0.57558794  0.75328909  0.65257898    -0.70900
O3626       O  0.99825789  0.72879382  0.66349023    -0.70900
O3627       O  0.99577558  0.66897239  0.65766033    -0.70900
O3628       O  0.52008942  0.72695915  0.65450146    -0.70900
O3629       O  0.04898414  0.66260925  0.68485834    -0.70800
O3630       O  0.04723129  0.67532641  0.62907939    -0.71000
V3631       V  0.05035452  0.72773801  0.66129071     1.35200
V3632       V  0.04835547  0.67001285  0.65707565     1.35200
C3633       C  0.04558834  0.70734350  0.62163014     0.78400
C3634       C  0.05165772  0.69058191  0.69648909     0.78500
C3635       C  0.55482052  0.72410814  0.65313436     0.78300
C3636       C  0.97931459  0.69896609  0.66076269     0.78300
O3637       O  0.62756948  0.48589428  0.64699788    -0.70800
O3638       O  0.63125456  0.47248299  0.70269114    -0.71100
O3639       O  0.68116349  0.48609717  0.67419984    -0.70900
O3640       O  0.57702846  0.47276147  0.67566227    -0.70900
O3641       O  0.76567390  0.94070018  0.66287245    -0.70900
O3642       O  0.86902407  0.96349946  0.66758137    -0.70900
O3643       O  0.81336849  0.94779532  0.69315760    -0.70800
O3644       O  0.82096135  0.95686468  0.63738481    -0.71000
V3645       V  0.62913389  0.47814061  0.67482677     1.35200
V3646       V  0.81720560  0.95333815  0.66534028     1.35200
C3647       C  0.63109406  0.45866167  0.63503801     0.78400
C3648       C  0.80387127  0.97514171  0.70383455     0.78500
C3649       C  0.88119700  0.99653483  0.67067356     0.78300
C3650       C  0.74347767  0.96686577  0.66174542     0.78300
O3651       O  0.75065380  0.71557702  0.63025660    -0.70800
O3652       O  0.74371495  0.70897290  0.68576540    -0.71100
O3653       O  0.79890871  0.72214455  0.65991580    -0.70900
O3654       O  0.69512345  0.70062555  0.65592478    -0.70900
O3655       O  0.70499536  0.64122392  0.65425169    -0.70900
O3656       O  0.80780771  0.66266156  0.65721153    -0.70900
O3657       O  0.75472073  0.64994246  0.68408562    -0.70800
O3658       O  0.75981235  0.65642048  0.62748476    -0.71000
V3659       V  0.74707606  0.71060279  0.65794684     1.35200
V3660       V  0.75645935  0.65363926  0.65582177     1.35200
C3661       C  0.75809995  0.68796373  0.61934952     0.78400
C3662       C  0.74908419  0.67898054  0.69451559     0.78500
C3663       C  0.82083863  0.69554888  0.65870141     0.78300
C3664       C  0.68263575  0.66726694  0.65437670     0.78300
C3665       C  0.93873949  0.69964353  0.66016128    -0.04400
C3666       C  0.91992840  0.68460996  0.64348742    -0.01500
C3667       C  0.88110022  0.68476256  0.64272555     0.03500
C3668       C  0.86112812  0.70148096  0.65827259    -0.04400
C3669       C  0.87988826  0.71825147  0.67452200    -0.01500
C3670       C  0.91881635  0.71636865  0.67574783     0.03500
C3671       C  0.94026151  0.66907372  0.62695836     0.38100
C3672       C  0.85901097  0.73530651  0.69043841     0.38100
C3673       C  0.93795707  0.72887900  0.69362050     0.36500
C3674       C  0.86171651  0.66667083  0.62612280     0.36500
N3675       N  0.95314882  0.73823838  0.70799824    -0.38300
N3676       N  0.84658967  0.65165857  0.61301336    -0.38300
N3677       N  0.84225383  0.74896712  0.70307258    -0.37700
N3678       N  0.95566377  0.65651367  0.61355374    -0.37700
C3679       C  0.64264329  0.65982764  0.65206400    -0.04400
C3680       C  0.62649781  0.66785896  0.63387434    -0.01500
C3681       C  0.59004485  0.68030932  0.63356876     0.03500
C3682       C  0.57211371  0.68808640  0.65156315    -0.04400
C3683       C  0.58482968  0.67222716  0.66898928    -0.01500
C3684       C  0.62013030  0.65660509  0.66901212     0.03500
C3685       C  0.64872956  0.66802812  0.61598968     0.38100
C3686       C  0.56411614  0.67653655  0.68721023     0.38100
C3687       C  0.63448395  0.64015697  0.68662856     0.36500
C3688       C  0.57325876  0.69022135  0.61510259     0.36500
N3689       N  0.64563546  0.62640721  0.70060944    -0.38300
N3690       N  0.56028295  0.69737589  0.60013087    -0.38300
N3691       N  0.54777150  0.67994438  0.70183168    -0.37700
N3692       N  0.66608785  0.66877485  0.60159036    -0.37700
C3693       C  0.81849859  0.45965246  0.66825520    -0.04400
C3694       C  0.97962801  0.99124551  0.68743005    -0.01500
C3695       C  0.94138853  0.99829213  0.68850360     0.03500
C3696       C  0.74119957  0.46304967  0.66991848    -0.04400
C3697       C  0.75846473  0.45248536  0.65213271    -0.01500
C3698       C  0.79720981  0.45043414  0.65133158     0.03500
C3699       C  0.99827958  0.97838442  0.70478838     0.38100
C3700       C  0.73632082  0.44296852  0.63476600     0.38100
C3701       C  0.81486643  0.43730499  0.63332794     0.36500
C3702       C  0.92230191  0.99910979  0.70738242     0.36500
N3703       N  0.82831503  0.42645917  0.61889794    -0.38300
N3704       N  0.90742272  0.00081019  0.72252345    -0.38300
N3705       N  0.71900569  0.43542444  0.62081337    -0.37700
N3706       N  0.01195731  0.96723021  0.71879858    -0.37700
C3707       C  0.52096166  0.43924937  0.67074720    -0.04400
C3708       C  0.50707238  0.44835162  0.65218670    -0.01500
C3709       C  0.47594800  0.47064440  0.65110130     0.03500
C3710       C  0.45681080  0.48055551  0.66852973    -0.04400
C3711       C  0.64200980  0.96346798  0.67254895    -0.01500
C3712       C  0.67921117  0.95247574  0.67365005     0.03500
C3713       C  0.52792773  0.43922669  0.63445785     0.38100
C3714       C  0.61757129  0.95792579  0.68928756     0.38100
C3715       C  0.69316993  0.93634857  0.69148288     0.36500
C3716       C  0.46711596  0.48711195  0.63243370     0.36500
N3717       N  0.70437440  0.92339564  0.70567389    -0.38300
N3718       N  0.46193468  0.50050431  0.61736537    -0.38300
N3719       N  0.59914307  0.95274510  0.70304560    -0.37700
N3720       N  0.54440070  0.43204004  0.62027675    -0.37700
C3721       C  0.75075426  0.68640603  0.75867158    -0.04400
C3722       C  0.78185153  0.67295634  0.74802191    -0.01500
C3723       C  0.78068828  0.66878907  0.72717007     0.03500
C3724       C  0.74898385  0.67901506  0.71656317    -0.04400
C3725       C  0.71828566  0.69293913  0.72706513    -0.01500
C3726       C  0.71859278  0.69537672  0.74789471     0.03500
C3727       C  0.81467137  0.66176275  0.75845442     0.38100
C3728       C  0.68606846  0.70510598  0.71641644     0.38100
C3729       C  0.68519503  0.70687607  0.75802868     0.36500
C3730       C  0.81278380  0.65519159  0.71656787     0.36500
N3731       N  0.65801190  0.71525565  0.76586688    -0.38300
N3732       N  0.83843157  0.64435135  0.70815565    -0.38300
N3733       N  0.66046356  0.71531226  0.70805904    -0.37700
N3734       N  0.84085064  0.65274023  0.76674604    -0.37700
C3735       C  0.74318404  0.86994142  0.82976257    -0.04400
C3736       C  0.71981763  0.85427826  0.81485313    -0.01500
C3737       C  0.71267687  0.81548903  0.81405039     0.03500
C3738       C  0.72953075  0.79287176  0.82789370    -0.04400
C3739       C  0.74797711  0.80923313  0.84438470    -0.01500
C3740       C  0.75557191  0.84773838  0.84511469     0.03500
C3741       C  0.70612212  0.87742569  0.79935522     0.38100
C3742       C  0.75986333  0.78643518  0.86045365     0.38100
C3743       C  0.77747296  0.86414822  0.86123549     0.36500
C3744       C  0.68954890  0.79896131  0.79854742     0.36500
N3745       N  0.79521221  0.87677645  0.87408301    -0.38300
N3746       N  0.67042836  0.78651365  0.78622709    -0.38300
N3747       N  0.76927354  0.76921003  0.87365202    -0.37700
N3748       N  0.69543442  0.89587531  0.78693384    -0.37700
C3749       C  0.75636484  0.50365344  0.81611107    -0.04400
C3750       C  0.77611085  0.52232682  0.83145781    -0.01500
C3751       C  0.78608681  0.56026072  0.82953887     0.03500
C3752       C  0.77460859  0.57897653  0.81269738    -0.04400
C3753       C  0.76128471  0.55861987  0.79603886    -0.01500
C3754       C  0.75339775  0.52025859  0.79761932     0.03500
C3755       C  0.78151841  0.50401233  0.85005211     0.38100
C3756       C  0.75222651  0.57753341  0.77806256     0.38100
C3757       C  0.73869080  0.49860310  0.78094432     0.36500
C3758       C  0.80339435  0.58098745  0.84583889     0.36500
N3759       N  0.72746801  0.48128458  0.76753848    -0.38300
N3760       N  0.81725442  0.59758472  0.85880917    -0.38300
N3761       N  0.74458524  0.59215033  0.76364870    -0.37700
N3762       N  0.78572400  0.48960489  0.86495529    -0.37700
C3763       C  0.78827848  0.96796650  0.76734241    -0.04400
C3764       C  0.61993767  0.44578914  0.76546618    -0.01500
C3765       C  0.61599559  0.45210574  0.74509576     0.03500
C3766       C  0.79776798  0.97131484  0.72553786    -0.04400
C3767       C  0.76753520  0.98866938  0.73488322    -0.01500
C3768       C  0.76254998  0.98677793  0.75552250     0.03500
C3769       C  0.59252407  0.46101934  0.77887377     0.38100
C3770       C  0.74082038  0.00814282  0.72323627     0.38100
C3771       C  0.73147340  0.00580410  0.76439501     0.36500
C3772       C  0.58806433  0.47722069  0.73851093     0.36500
N3773       N  0.70669780  0.02108047  0.77136436    -0.38300
N3774       N  0.56609869  0.49775406  0.73346865    -0.38300
N3775       N  0.71943735  0.02368128  0.71404690    -0.37700
N3776       N  0.57052364  0.47314675  0.78947064    -0.37700
C3777       C  0.04960306  0.68108215  0.76022149    -0.04400
C3778       C  0.02405302  0.65963487  0.74839122    -0.01500
C3779       C  0.02507993  0.66223301  0.72760816     0.03500
C3780       C  0.05184676  0.68610429  0.71834230    -0.04400
C3781       C  0.55713632  0.81255599  0.72410334    -0.01500
C3782       C  0.56010924  0.81004497  0.74482041     0.03500
C3783       C  0.99697772  0.63423347  0.75754402     0.38100
C3784       C  0.57934290  0.84106829  0.71405711     0.38100
C3785       C  0.58585719  0.83529372  0.75538849     0.36500
C3786       C  0.99714077  0.64175998  0.71588250     0.36500
N3787       N  0.60666392  0.85521442  0.76376545    -0.38300
N3788       N  0.97466317  0.62553707  0.70661775    -0.38300
N3789       N  0.59717536  0.86376449  0.70608680    -0.37700
N3790       N  0.97549091  0.61392450  0.76486750    -0.37700
C3791       C  0.05192866  0.87044957  0.82606218    -0.04400
C3792       C  0.51993543  0.94849386  0.83423382    -0.01500
C3793       C  0.52312385  0.90989019  0.83357977     0.03500
C3794       C  0.04005128  0.79341785  0.82260146    -0.04400
C3795       C  0.02912025  0.81620813  0.80712227    -0.01500
C3796       C  0.03499093  0.85505882  0.80889838     0.03500
C3797       C  0.53790109  0.97024830  0.85002517     0.38100
C3798       C  0.01412358  0.79964704  0.78902314     0.38100
C3799       C  0.02635854  0.87885076  0.79260047     0.36500
C3800       C  0.54454041  0.89199874  0.84861691     0.36500
N3801       N  0.01957972  0.89802371  0.77967255    -0.38300
N3802       N  0.56167974  0.87806396  0.86065283    -0.38300
N3803       N  0.00216814  0.78651754  0.77455985    -0.37700
N3804       N  0.55233389  0.98715724  0.86271572    -0.37700
C3805       C  0.00116658  0.50279844  0.82507223    -0.04400
C3806       C  0.01693977  0.51428109  0.80699954    -0.01500
C3807       C  0.03553313  0.54937401  0.80594158     0.03500
C3808       C  0.03776801  0.57254454  0.82288600    -0.04400
C3809       C  0.55725285  0.66336419  0.83515712    -0.01500
C3810       C  0.53461655  0.63096924  0.83681832     0.03500
C3811       C  0.01201613  0.49118374  0.78935974     0.38100
C3812       C  0.56579735  0.68588405  0.85265491     0.38100
C3813       C  0.52136167  0.61972177  0.85611736     0.36500
C3814       C  0.05032983  0.56263395  0.78731200     0.36500
N3815       N  0.51137108  0.61214862  0.87182045    -0.38300
N3816       N  0.06223982  0.57304605  0.77243263    -0.38300
N3817       N  0.57152294  0.70354475  0.86682359    -0.37700
N3818       N  0.00853609  0.47270414  0.77527429    -0.37700
C3819       C  0.92219544  0.41539519  0.76954005    -0.04400
C3820       C  0.92012382  0.45091428  0.76100631    -0.01500
C3821       C  0.92126952  0.45480494  0.74025279     0.03500
C3822       C  0.92319826  0.42294194  0.72755397    -0.04400
C3823       C  0.53163072  0.02998086  0.72784672    -0.01500
C3824       C  0.52806424  0.03373082  0.74861083     0.03500
C3825       C  0.91853330  0.48397030  0.77362090     0.38100
C3826       C  0.52760211  0.99335243  0.71881297     0.38100
C3827       C  0.52976760  0.00115909  0.76082933     0.36500
C3828       C  0.92154868  0.49204488  0.73228010     0.36500
N3829       N  0.53220406  0.97508945  0.77043728    -0.38300
N3830       N  0.92207216  0.52190727  0.72611549    -0.38300
N3831       N  0.52300796  0.96411707  0.71164217    -0.37700
N3832       N  0.91740531  0.51035677  0.78363929    -0.37700
C3833       C  0.74604453  0.69293806  0.92122835    -0.04400
C3834       C  0.78037018  0.68741842  0.91156412    -0.01500
C3835       C  0.78226631  0.68406967  0.89067576     0.03500
C3836       C  0.74940159  0.68474222  0.87900965    -0.04400
C3837       C  0.71490187  0.68991535  0.88901893    -0.01500
C3838       C  0.71354536  0.69491132  0.90977671     0.03500
C3839       C  0.81399962  0.68564553  0.92322102     0.38100
C3840       C  0.68032330  0.69089894  0.87815700     0.38100
C3841       C  0.67839022  0.70208444  0.91952965     0.36500
C3842       C  0.81841734  0.68013252  0.88142849     0.36500
N3843       N  0.65046805  0.70778775  0.92740093    -0.38300
N3844       N  0.84743222  0.67734931  0.87416388    -0.38300
N3845       N  0.65268266  0.69135296  0.86949441    -0.37700
N3846       N  0.84081906  0.68438678  0.93254463    -0.37700
C3847       C  0.75544559  0.96074400  0.92760008    -0.04400
C3848       C  0.68899523  0.46226172  0.92233646    -0.01500
C3849       C  0.68170935  0.46114075  0.90189250     0.03500
C3850       C  0.76958237  0.97453901  0.88678904    -0.04400
C3851       C  0.79761449  0.96016815  0.89906220    -0.01500
C3852       C  0.79038153  0.95328346  0.91921275     0.03500
C3853       C  0.66559344  0.48363484  0.93553325     0.38100
C3854       C  0.83430916  0.95232086  0.89134313     0.38100
C3855       C  0.81941423  0.93939142  0.93162867     0.36500
C3856       C  0.65091394  0.48218329  0.89475982     0.36500
N3857       N  0.84254812  0.92849032  0.94158385    -0.38300
N3858       N  0.62638094  0.49915877  0.88924896    -0.38300
N3859       N  0.86360888  0.94574987  0.88533727    -0.37700
N3860       N  0.64698293  0.50069834  0.94602753    -0.37700
C3861       C  0.51742639  0.80159678  0.91604904    -0.04400
C3862       C  0.55281632  0.79367474  0.90817345    -0.01500
C3863       C  0.55818751  0.79017583  0.88751004     0.03500
C3864       C  0.52773136  0.79310356  0.87443413    -0.04400
C3865       C  0.99599583  0.69389962  0.88907378    -0.01500
C3866       C  0.99310351  0.69601687  0.90987859     0.03500
C3867       C  0.58388836  0.78952265  0.92143164     0.38100
C3868       C  0.96256795  0.69849534  0.87757347     0.38100
C3869       C  0.95744532  0.70280110  0.91918093     0.36500
C3870       C  0.59531532  0.78421333  0.87986496     0.36500
N3871       N  0.92902114  0.70807338  0.92662414    -0.38300
N3872       N  0.62503309  0.77987763  0.87377253    -0.38300
N3873       N  0.93576601  0.70214184  0.86850280    -0.37700
N3874       N  0.60869679  0.78639443  0.93202831    -0.37700
C3875       C  0.47318790  0.55434559  0.92452469    -0.04400
C3876       C  0.03285622  0.97415748  0.91398616    -0.01500
C3877       C  0.04261227  0.98124867  0.89402706     0.03500
C3878       C  0.45151097  0.55392036  0.88398422    -0.04400
C3879       C  0.48279336  0.53400362  0.89015257    -0.01500
C3880       C  0.49331210  0.53409697  0.91027956     0.03500
C3881       C  0.99618020  0.98306211  0.92138470     0.38100
C3882       C  0.50583970  0.51519095  0.87575605     0.38100
C3883       C  0.52568173  0.51424338  0.91629856     0.36500
C3884       C  0.01555327  0.99907373  0.88190096     0.36500
N3885       N  0.55159779  0.49851407  0.92105949    -0.38300
N3886       N  0.99380641  0.01358133  0.87245389    -0.38300
N3887       N  0.52446783  0.50046819  0.86428095    -0.37700
N3888       N  0.96697215  0.99008639  0.92734348    -0.37700
C3889       C  0.77683408  0.70893429  0.55681368    -0.04400
C3890       C  0.75839066  0.67546655  0.56280128    -0.01500
C3891       C  0.75444171  0.66720799  0.58310280     0.03500
C3892       C  0.76596600  0.69385039  0.59773232    -0.04400
C3893       C  0.78491678  0.72726679  0.59154831    -0.01500
C3894       C  0.79099930  0.73418994  0.57129529     0.03500
C3895       C  0.74297931  0.64967171  0.54799240     0.38100
C3896       C  0.79943479  0.75442575  0.60595320     0.38100
C3897       C  0.81183094  0.76752641  0.56524111     0.36500
C3898       C  0.73841541  0.63128655  0.58877083     0.36500
N3899       N  0.82865938  0.79388581  0.56029091    -0.38300
N3900       N  0.72593976  0.60244241  0.59323889    -0.38300
N3901       N  0.81095448  0.77632209  0.61733080    -0.37700
N3902       N  0.73029182  0.62930909  0.53618044    -0.37700
C3903       C  0.82772214  0.99764586  0.56525900    -0.04400
C3904       C  0.64060788  0.50411042  0.58384455    -0.01500
C3905       C  0.63560228  0.49983342  0.60444313     0.03500
C3906       C  0.82323943  0.99207528  0.60721064    -0.04400
C3907       C  0.84118702  0.96458214  0.59564065    -0.01500
C3908       C  0.84314907  0.96730318  0.57487383     0.03500
C3909       C  0.64216991  0.54103430  0.57545392     0.38100
C3910       C  0.85859598  0.93364005  0.60495106     0.38100
C3911       C  0.86105816  0.93857414  0.56333810     0.36500
C3912       C  0.63173726  0.53314256  0.61660910     0.36500
N3913       N  0.87558556  0.91570517  0.55423276    -0.38300
N3914       N  0.62855595  0.55996078  0.62610875    -0.38300
N3915       N  0.87246795  0.90896964  0.61237791    -0.37700
N3916       N  0.64374257  0.57043288  0.56872247    -0.37700
C3917       C  0.03601985  0.72208241  0.55767287    -0.04400
C3918       C  0.50700942  0.74731931  0.56375422    -0.01500
C3919       C  0.50321502  0.75421103  0.58417548     0.03500
C3920       C  0.04234664  0.71244465  0.59946849    -0.04400
C3921       C  0.04749172  0.74833269  0.59093111    -0.01500
C3922       C  0.04533977  0.75276345  0.57022203     0.03500
C3923       C  0.48434423  0.71792372  0.55415449     0.38100
C3924       C  0.05552087  0.78109376  0.60322333     0.38100
C3925       C  0.05315338  0.78901154  0.56170499     0.36500
C3926       C  0.47503074  0.73253886  0.59485663     0.36500
N3927       N  0.05955411  0.81788360  0.55490448    -0.38300
N3928       N  0.45235632  0.71518206  0.60318350    -0.38300
N3929       N  0.06149281  0.80711479  0.61319448    -0.37700
N3930       N  0.46647958  0.69444149  0.54645728    -0.37700
C3931       C  0.90535656  0.45846531  0.56781333    -0.04400
C3932       C  0.56979102  0.99233018  0.57037003    -0.01500
C3933       C  0.56225886  0.00063746  0.59042867     0.03500
C3934       C  0.91639789  0.44478401  0.60863172    -0.04400
C3935       C  0.90061353  0.47831751  0.60244574    -0.01500
C3936       C  0.89547330  0.48513750  0.58221678     0.03500
C3937       C  0.57655398  0.95430412  0.56408970     0.38100
C3938       C  0.88750980  0.50520539  0.61688964     0.38100
C3939       C  0.88062664  0.52012509  0.57614825     0.36500
C3940       C  0.56202664  0.97070638  0.60452331     0.36500
N3941       N  0.86906996  0.54817085  0.57133725    -0.38300
N3942       N  0.56227120  0.94689826  0.61578130    -0.38300
N3943       N  0.87676991  0.52645887  0.62841098    -0.37700
N3944       N  0.58183087  0.92401613  0.55900214    -0.37700
C3945       C  0.75902875  0.67042960  0.37800211    -0.04400
C3946       C  0.75888269  0.70707569  0.38648165    -0.01500
C3947       C  0.76967373  0.71384979  0.40628716     0.03500
C3948       C  0.77760124  0.68419437  0.41875054    -0.04400
C3949       C  0.77574440  0.64746803  0.41094416    -0.01500
C3950       C  0.76776686  0.64062395  0.39064916     0.03500
C3951       C  0.74690867  0.73841739  0.37522821     0.38100
C3952       C  0.78080373  0.61658371  0.42403426     0.38100
C3953       C  0.76891729  0.60264408  0.38310203     0.36500
C3954       C  0.77175154  0.75178120  0.41417292     0.36500
N3955       N  0.77016256  0.57223430  0.37724382    -0.38300
N3956       N  0.77356047  0.78192747  0.42052293    -0.38300
N3957       N  0.78456974  0.59196438  0.43452094    -0.37700
N3958       N  0.73721547  0.76360113  0.36645253    -0.37700
C3959       C  0.84837391  0.93627891  0.38559046    -0.04400
C3960       C  0.66421967  0.48667465  0.39964634    -0.01500
C3961       C  0.66114063  0.48821967  0.42036867     0.03500
C3962       C  0.83935399  0.95172350  0.42668322    -0.04400
C3963       C  0.82716075  0.91691938  0.41856851    -0.01500
C3964       C  0.83079095  0.90950627  0.39811328     0.03500
C3965       C  0.67597211  0.52026358  0.38932180     0.38100
C3966       C  0.81114464  0.88856535  0.43138387     0.38100
C3967       C  0.81666760  0.87391690  0.39018417     0.36500
C3968       C  0.66908357  0.52322297  0.43088194     0.36500
N3969       N  0.80530872  0.84547998  0.38396898    -0.38300
N3970       N  0.67525932  0.55125782  0.43914459    -0.38300
N3971       N  0.79816686  0.86614294  0.44164991    -0.37700
N3972       N  0.68492699  0.54706647  0.38104226    -0.37700
C3973       C  0.04955324  0.72658624  0.37860595    -0.04400
C3974       C  0.04742742  0.76386918  0.38606650    -0.01500
C3975       C  0.04004770  0.77096562  0.40621396     0.03500
C3976       C  0.03873032  0.74151068  0.41958329    -0.04400
C3977       C  0.56687811  0.73923809  0.40165547    -0.01500
C3978       C  0.56660615  0.74712383  0.38128192     0.03500
C3979       C  0.05432371  0.79533508  0.37331240     0.38100
C3980       C  0.59365912  0.71362598  0.40894285     0.38100
C3981       C  0.59666480  0.73485362  0.36866737     0.36500
C3982       C  0.03313386  0.80851280  0.41322588     0.36500
N3983       N  0.62097448  0.72549510  0.35871340    -0.38300
N3984       N  0.02739149  0.83830025  0.41896464    -0.38300
N3985       N  0.61527094  0.69332618  0.41463265    -0.37700
N3986       N  0.06043527  0.81982096  0.36278816    -0.37700
C3987       C  0.94081923  0.68056864  0.32248192    -0.04400
C3988       C  0.92511851  0.66007014  0.30643272    -0.01500
C3989       C  0.88681126  0.65126583  0.30623875     0.03500
C3990       C  0.86468064  0.66206080  0.32234242    -0.04400
C3991       C  0.88070553  0.68134539  0.33875144    -0.01500
C3992       C  0.91901271  0.69039430  0.33886770     0.03500
C3993       C  0.94797750  0.64910584  0.28978343     0.38100
C3994       C  0.85782307  0.69296822  0.35525028     0.38100
C3995       C  0.93612104  0.70926057  0.35588046     0.36500
C3996       C  0.86975201  0.63413809  0.28876954     0.36500
N3997       N  0.94981836  0.72403953  0.36948222    -0.38300
N3998       N  0.85625664  0.62118591  0.27464820    -0.38300
N3999       N  0.84032779  0.70285643  0.36857238    -0.37700
N4000       N  0.96564180  0.63989733  0.27637923    -0.37700
C4001       C  0.57779527  0.68961036  0.30479747    -0.04400
C4002       C  0.60191195  0.68584085  0.28863748    -0.01500
C4003       C  0.63610438  0.66934203  0.29129222     0.03500
C4004       C  0.64489547  0.65454216  0.30979726    -0.04400
C4005       C  0.61728619  0.65148616  0.32457519    -0.01500
C4006       C  0.58315810  0.66883552  0.32188205     0.03500
C4007       C  0.59474340  0.70412159  0.27020468     0.38100
C4008       C  0.62606769  0.63596778  0.34348534     0.38100
C4009       C  0.55573321  0.67011366  0.33762117     0.36500
C4010       C  0.66429946  0.67468954  0.27612323     0.36500
N4011       N  0.53332139  0.67146530  0.34990309    -0.38300
N4012       N  0.68528014  0.68170623  0.26363648    -0.38300
N4013       N  0.63312403  0.62394610  0.35867397    -0.37700
N4014       N  0.59123460  0.71806104  0.25512150    -0.37700
C4015       C  0.06222323  0.95856572  0.38180838    -0.04400
C4016       C  0.07753178  0.93548313  0.39630840    -0.01500
C4017       C  0.07970741  0.94733302  0.41630784     0.03500
C4018       C  0.06948538  0.98349823  0.42219661    -0.04400
C4019       C  0.41716810  0.56500689  0.42017375    -0.01500
C4020       C  0.42350468  0.57016473  0.39970502     0.03500
C4021       C  0.09278471  0.89989528  0.39092763     0.38100
C4022       C  0.42058240  0.59647083  0.43386097     0.38100
C4023       C  0.43190229  0.60754026  0.39279950     0.36500
C4024       C  0.09334322  0.92219806  0.43094453     0.36500
N4025       N  0.43834733  0.63752283  0.38743260    -0.38300
N4026       N  0.10436305  0.90222972  0.44257885    -0.38300
N4027       N  0.42333378  0.62148153  0.44483664    -0.37700
N4028       N  0.10615656  0.87188609  0.38704325    -0.37700
C4029       C  0.91231606  0.83635894  0.32994262    -0.04400
C4030       C  0.75158350  0.36500984  0.34610725    -0.01500
C4031       C  0.79044067  0.36200095  0.34545160     0.03500
C4032       C  0.98854602  0.85156565  0.32792432    -0.04400
C4033       C  0.97028677  0.83463994  0.31150739    -0.01500
C4034       C  0.93169373  0.82587250  0.31279028     0.03500
C4035       C  0.73364655  0.37254758  0.36489325     0.38100
C4036       C  0.99014327  0.82989890  0.29305758     0.38100
C4037       C  0.91066425  0.81318303  0.29562612     0.36500
C4038       C  0.81154587  0.36138602  0.36358324     0.36500
N4039       N  0.89366197  0.80293079  0.28198075    -0.38300
N4040       N  0.82781351  0.36106489  0.37825132    -0.38300
N4041       N  0.00601197  0.82581286  0.27833356    -0.37700
N4042       N  0.72010172  0.38022735  0.37985600    -0.37700
C4043       C  0.72413290  0.05688419  0.32062336    -0.04400
C4044       C  0.74693091  0.05046478  0.30405981    -0.01500
C4045       C  0.77884685  0.02942761  0.30612228     0.03500
C4046       C  0.78664545  0.01441298  0.32462703    -0.04400
C4047       C  0.57846733  0.55115268  0.34733765    -0.01500
C4048       C  0.54934485  0.57596700  0.34678637     0.03500
C4049       C  0.73490425  0.06145944  0.28471228     0.38100
C4050       C  0.58716399  0.53385178  0.36579452     0.38100
C4051       C  0.53025248  0.58660196  0.36479597     0.36500
C4052       C  0.80153852  0.02039713  0.28906883     0.36500
N4053       N  0.51537242  0.59510971  0.37925835    -0.38300
N4054       N  0.81993737  0.01340608  0.27554541    -0.38300
N4055       N  0.59239050  0.51992501  0.38071205    -0.37700
N4056       N  0.72542948  0.07023182  0.26924299    -0.37700
C4057       C  0.71479304  0.70688872  0.06143168    -0.04400
C4058       C  0.74087185  0.72707209  0.07343927    -0.01500
C4059       C  0.73797443  0.72558344  0.09420100     0.03500
C4060       C  0.71044075  0.70233081  0.10312940    -0.04400
C4061       C  0.68192895  0.68578402  0.09126185    -0.01500
C4062       C  0.68397458  0.68821653  0.07046506     0.03500
C4063       C  0.77104825  0.74888103  0.06445058     0.38100
C4064       C  0.64983765  0.66758572  0.10048405     0.38100
C4065       C  0.65420053  0.67201338  0.05831544     0.36500
C4066       C  0.76131794  0.75029480  0.10636383     0.36500
N4067       N  0.63029943  0.65947851  0.04857365    -0.38300
N4068       N  0.77887062  0.77156818  0.11578212    -0.38300
N4069       N  0.62366973  0.65383644  0.10776128    -0.37700
N4070       N  0.79500692  0.76637854  0.05724020    -0.37700
C4071       C  0.74656862  0.64680206  0.21669238    -0.04400
C4072       C  0.72602683  0.62036441  0.22788786    -0.01500
C4073       C  0.73142226  0.61851964  0.24858667     0.03500
C4074       C  0.75730990  0.64343766  0.25831006    -0.04400
C4075       C  0.78094452  0.66652494  0.24660063    -0.01500
C4076       C  0.77665038  0.66675092  0.22585790     0.03500
C4077       C  0.70073675  0.59388922  0.21793691     0.38100
C4078       C  0.81018071  0.68973556  0.25581348     0.38100
C4079       C  0.80542834  0.68434545  0.21383390     0.36500
C4080       C  0.70813168  0.59308451  0.26000436     0.36500
N4081       N  0.82949964  0.69722818  0.20448438    -0.38300
N4082       N  0.68942877  0.57306062  0.26925118    -0.38300
N4083       N  0.83349597  0.70829551  0.26314137    -0.37700
N4084       N  0.68134722  0.57204802  0.20994252    -0.37700
C4085       C  0.78877862  0.92775458  0.10615431    -0.04400
C4086       C  0.67351721  0.44599943  0.09649084    -0.01500
C4087       C  0.67928578  0.44271896  0.07595005     0.03500
C4088       C  0.76850861  0.93882504  0.06584581    -0.04400
C4089       C  0.80285988  0.95338143  0.07324578    -0.01500
C4090       C  0.81323425  0.94756256  0.09307855     0.03500
C4091       C  0.64011959  0.42843861  0.10490361     0.38100
C4092       C  0.82812277  0.97370502  0.06017785     0.38100
C4093       C  0.84935743  0.96221945  0.09972173     0.36500
C4094       C  0.65224131  0.42196927  0.06375177     0.36500
N4095       N  0.87819569  0.97406864  0.10490776    -0.38300
N4096       N  0.63059488  0.40546966  0.05407813    -0.38300
N4097       N  0.84828235  0.98989100  0.04975630    -0.37700
N4098       N  0.61345076  0.41435700  0.11151297    -0.37700
C4099       C  0.84134377  0.81939595  0.16720776    -0.04400
C4100       C  0.84731522  0.79551994  0.15088594    -0.01500
C4101       C  0.83341152  0.75816627  0.15144351     0.03500
C4102       C  0.80851301  0.74780983  0.16675572    -0.04400
C4103       C  0.80676946  0.77061933  0.18393879    -0.01500
C4104       C  0.82774550  0.80412485  0.18485013     0.03500
C4105       C  0.86323560  0.81054196  0.13293075     0.38100
C4106       C  0.78000173  0.76262497  0.19959879     0.38100
C4107       C  0.83017749  0.82540069  0.20319140     0.36500
C4108       C  0.84086356  0.73231182  0.13538633     0.36500
N4109       N  0.83235910  0.84094366  0.21825097    -0.38300
N4110       N  0.84700377  0.71159010  0.12261546    -0.38300
N4111       N  0.75819699  0.75706842  0.21192944    -0.37700
N4112       N  0.87555804  0.82277638  0.11853436    -0.37700
C4113       C  0.60334845  0.52964536  0.16219711    -0.04400
C4114       C  0.60813044  0.54228307  0.14290704    -0.01500
C4115       C  0.63157594  0.57421683  0.14040357     0.03500
C4116       C  0.63746509  0.59882417  0.15675528    -0.04400
C4117       C  0.61607643  0.59272090  0.17414124    -0.01500
C4118       C  0.59885316  0.55716346  0.17691172     0.03500
C4119       C  0.59848556  0.51749791  0.12651702     0.38100
C4120       C  0.61565791  0.62046022  0.18994026     0.38100
C4121       C  0.58701488  0.54576662  0.19638195     0.36500
C4122       C  0.65255053  0.57870647  0.12225576     0.36500
N4123       N  0.57849992  0.53668450  0.21210060    -0.38300
N4124       N  0.66984066  0.58130284  0.10786767    -0.38300
N4125       N  0.61503392  0.64261840  0.20253887    -0.37700
N4126       N  0.59005006  0.49821484  0.11329724    -0.37700
C4127       C  0.82776599  0.92461308  0.22467074    -0.04400
C4128       C  0.65147209  0.43831029  0.23646957    -0.01500
C4129       C  0.64659124  0.43820482  0.25715026     0.03500
C4130       C  0.83850025  0.91994650  0.26648772    -0.04400
C4131       C  0.86941920  0.92351836  0.25356717    -0.01500
C4132       C  0.86417291  0.92691999  0.23295899     0.03500
C4133       C  0.62557838  0.41573849  0.22442386     0.38100
C4134       C  0.90692191  0.92162227  0.26132764     0.38100
C4135       C  0.89680125  0.93195393  0.22046567     0.36500
C4136       C  0.61386404  0.41854476  0.26508556     0.36500
N4137       N  0.92307283  0.93622797  0.21069409    -0.38300
N4138       N  0.58758660  0.40283115  0.27112831    -0.38300
N4139       N  0.93677758  0.91963284  0.26749447    -0.37700
N4140       N  0.60539549  0.39720142  0.21486161    -0.37700
C4141       C  0.50759342  0.81082466  0.09665716    -0.04400
C4142       C  0.99293414  0.71468176  0.09128609    -0.01500
C4143       C  0.99325170  0.71691802  0.07055338     0.03500
C4144       C  0.50054411  0.81178229  0.05491756    -0.04400
C4145       C  0.52575223  0.78804394  0.06371514    -0.01500
C4146       C  0.52931335  0.78741918  0.08437675     0.03500
C4147       C  0.96661150  0.73658649  0.10239554     0.38100
C4148       C  0.54938682  0.76522822  0.05139406     0.38100
C4149       C  0.55762648  0.76447008  0.09259574     0.36500
C4150       C  0.96761526  0.74072126  0.06074108     0.36500
N4151       N  0.58049469  0.74641720  0.09902963    -0.38300
N4152       N  0.94727682  0.75971347  0.05286920    -0.38300
N4153       N  0.56836642  0.74711613  0.04164134    -0.37700
N4154       N  0.94562276  0.75418598  0.11116431    -0.37700
C4155       C  0.02739690  0.68524715  0.21973222    -0.04400
C4156       C  0.00168599  0.70443728  0.23167902    -0.01500
C4157       C  0.00662870  0.70698741  0.25220413     0.03500
C4158       C  0.03758117  0.69089720  0.26109688    -0.04400
C4159       C  0.52143325  0.76922017  0.24472326    -0.01500
C4160       C  0.52426159  0.77057749  0.22404715     0.03500
C4161       C  0.97029092  0.72247573  0.22302961     0.38100
C4162       C  0.51077910  0.73414641  0.25388780     0.38100
C4163       C  0.51948755  0.73638079  0.21238849     0.36500
C4164       C  0.97926226  0.72597381  0.26418386     0.36500
N4165       N  0.51605959  0.70909121  0.20311028    -0.38300
N4166       N  0.95733906  0.74099794  0.27365763    -0.38300
N4167       N  0.50271936  0.70604248  0.26113847    -0.37700
N4168       N  0.94550403  0.73739267  0.21625356    -0.37700
C4169       C  0.56130338  0.03823661  0.09668530    -0.04400
C4170       C  0.58739720  0.04134913  0.08095571    -0.01500
C4171       C  0.57530951  0.04773347  0.06145302     0.03500
C4172       C  0.53717379  0.05219211  0.05735721    -0.04400
C4173       C  0.92622547  0.46187495  0.07235077    -0.01500
C4174       C  0.91285098  0.46559337  0.09205981     0.03500
C4175       C  0.62691849  0.03860076  0.08471242     0.38100
C4176       C  0.89996451  0.45886203  0.05615937     0.38100
C4177       C  0.87298442  0.46480466  0.09558478     0.36500
C4178       C  0.60237337  0.05069134  0.04555494     0.36500
N4179       N  0.84112581  0.46364778  0.09832078    -0.38300
N4180       N  0.62400415  0.05339190  0.03290808    -0.38300
N4181       N  0.87895655  0.45636142  0.04326577    -0.37700
N4182       N  0.65855136  0.03693193  0.08761573    -0.37700
C4183       C  0.14137253  0.80974963  0.15508493    -0.04400
C4184       C  0.65824746  0.91718705  0.15946098    -0.01500
C4185       C  0.63809959  0.88286758  0.16150612     0.03500
C4186       C  0.12124624  0.73460859  0.15695088    -0.04400
C4187       C  0.12679505  0.75095364  0.13841700    -0.01500
C4188       C  0.13272166  0.78970881  0.13761226     0.03500
C4189       C  0.68130996  0.93253282  0.17519959     0.38100
C4190       C  0.12063478  0.72933128  0.12048031     0.38100
C4191       C  0.12536255  0.80909207  0.11956353     0.36500
C4192       C  0.64148702  0.86109390  0.17911751     0.36500
N4193       N  0.11912624  0.82433977  0.10513483    -0.38300
N4194       N  0.64455837  0.84347635  0.19309175    -0.38300
N4195       N  0.11722080  0.71301125  0.10570953    -0.37700
N4196       N  0.69926547  0.94489724  0.18801290    -0.37700
C4197       C  0.86748128  0.57680698  0.15937993    -0.04400
C4198       C  0.88011207  0.59116644  0.14133823    -0.01500
C4199       C  0.90513499  0.62236501  0.14144296     0.03500
C4200       C  0.91648690  0.63856314  0.15968372    -0.04400
C4201       C  0.41195825  0.73156494  0.17860943    -0.01500
C4202       C  0.38910285  0.69884472  0.17865365     0.03500
C4203       C  0.87162388  0.57063672  0.12325243     0.38100
C4204       C  0.42546399  0.74683331  0.19722320     0.38100
C4205       C  0.37273440  0.68461439  0.19669920     0.36500
C4206       C  0.92110984  0.63589001  0.12315957     0.36500
N4207       N  0.35892027  0.67340649  0.21096915    -0.38300
N4208       N  0.93334952  0.64677447  0.10845150    -0.38300
N4209       N  0.43609977  0.75704948  0.21253757    -0.37700
N4210       N  0.86468426  0.55442902  0.10874489    -0.37700
C4211       C  0.08305094  0.91827223  0.26376597    -0.04400
C4212       C  0.43094001  0.59738334  0.25830181    -0.01500
C4213       C  0.43057634  0.60189363  0.23759012     0.03500
C4214       C  0.10178322  0.91182308  0.22255615    -0.04400
C4215       C  0.10267441  0.88060723  0.23496093    -0.01500
C4216       C  0.09591074  0.88442140  0.25556281     0.03500
C4217       C  0.43765427  0.63009641  0.27087640     0.38100
C4218       C  0.10812365  0.84385579  0.22661869     0.38100
C4219       C  0.10010467  0.85253322  0.26806770     0.36500
C4220       C  0.43881695  0.63843911  0.22952319     0.36500
N4221       N  0.10359255  0.82728566  0.27815983    -0.38300
N4222       N  0.44592559  0.66761873  0.22326476    -0.38300
N4223       N  0.11102894  0.81371075  0.22068235    -0.37700
N4224       N  0.44267202  0.65613000  0.28097531    -0.37700
loop_ 
_geom_bond_atom_site_label_1 
_geom_bond_atom_site_label_2 
_geom_bond_distance 
_geom_bond_site_symmetry_2 
_ccdc_geom_bond_type 
O1           C11   1.274       .  A
O1         V1065   1.937       .  S
O2         C2124   1.265       .  A
O2            V9   1.910       .  S
O3           C13   1.262       .  A
O3            V9   1.891       .  S
O4           C14   1.257       .  A
O4         V1065   1.868       .  S
O5         C2126   1.259       .  A
O5         V1066   1.887       .  S
O6         C2125   1.261       .  A
O6           V10   1.884       .  S
O7         C1068   1.267       .  A
O7         V1066   1.914       .  S
O8         C3179   1.270       .  A
O8           V10   1.917       .  S
V9         O1057   1.906       .  S
V9         O1060   1.895       .  S
V9         V2122   2.081       .  T
V10        O1061   1.904       .  S
V10        O1063   1.920       .  S
V10        V2121   2.086       .  T
C11        O3176   1.261       .  A
C11        C2057   1.506       .  S
C12        O2114   1.264       .  A
C12        O1063   1.270       .  A
C12        C1046   1.501       .  S
C13        O2118   1.260       .  A
C13        C3127   1.481       .  S
C14        O2117   1.265       .  A
C14        C3141   1.497   1_565  S
O15          C25   1.264       .  A
O15          V23   1.896       .  S
O16        C2138   1.263       .  A
O16          V23   1.897       .  S
O17        C2139   1.264       .  A
O17          V23   1.888       .  S
O18        C2140   1.264   1_455  A
O18          V23   1.891       .  S
O19          C28   1.267       .  A
O19          V24   1.902       .  S
O20          C27   1.265       .  A
O20          V24   1.914       .  S
O21          C26   1.266       .  A
O21          V24   1.911       .  S
O22        C2137   1.266       .  A
O22          V24   1.905       .  S
V23        V2136   2.079   1_455  T
V24        V2135   2.084       .  T
C25        O2134   1.268   1_455  A
C25         C973   1.503       .  S
C26        O2128   1.268       .  A
C26         C987   1.498       .  S
C27        O2129   1.260       .  A
C27        C1032   1.469       .  S
C28        O2130   1.258       .  A
C28        C1018   1.469       .  S
O29          C39   1.269       .  A
O29          V37   1.914       .  S
O30          C40   1.266       .  A
O30          V37   1.905       .  S
O31          C41   1.260       .  A
O31          V37   1.881       .  S
O32          C42   1.261       .  A
O32        V1093   1.868       .  S
O33          C42   1.257       .  A
O33        V1094   1.890       .  S
O34          C41   1.258       .  A
O34          V38   1.884       .  S
O35          C40   1.266       .  A
O35          V38   1.902       .  S
O36          C39   1.269       .  A
O36          V38   1.916       .  S
V37        O1088   1.886       .  S
V37          V38   2.086       .  T
V38        O1089   1.888       .  S
C39         C917   1.513       .  S
C40         C959   1.508       .  S
C41         C931   1.452       .  S
C42         C945   1.446       .  S
O43          C53   1.265       .  A
O43          V51   1.899       .  S
O44          C54   1.264       .  A
O44          V51   1.901       .  S
O45          C55   1.260       .  A
O45          V51   1.885       .  S
O46          C56   1.261       .  A
O46          V51   1.878       .  S
O47          C56   1.259       .  A
O47          V52   1.885       .  S
O48          C55   1.259       .  A
O48          V52   1.874       .  S
O49          C54   1.272       .  A
O49          V52   1.929       .  S
O50          C53   1.274       .  A
O50          V52   1.934       .  S
V51          V52   2.081       .  T
C53         C892   1.531       .  S
C54         C903   1.499       .  S
C55         C948   1.451       .  S
C56         C934   1.453       .  S
O57          C67   1.271       .  A
O57          V65   1.918       .  S
O58          C68   1.269       .  A
O58          V65   1.917       .  S
O59          C69   1.260       .  A
O59        V2177   1.877       .  S
O60          C70   1.255       .  A
O60          V65   1.878       .  S
O61        C1126   1.263       .  A
O61          V66   1.889       .  S
O62        C1125   1.260       .  A
O62        V2178   1.898       .  S
O63        C1124   1.267       .  A
O63          V66   1.908       .  S
O64        C1123   1.268       .  A
O64          V66   1.911       .  S
V65        O2171   1.865       .  S
V65        V1122   2.086       .  T
V66        O2174   1.901       .  S
V66        V1121   2.081       .  T
C67        O1120   1.265       .  A
C67         C847   1.517       .  S
C68        O1119   1.266       .  A
C68        C1043   1.515       .  S
C69        O1118   1.262       .  A
C69         C875   1.463       .  S
C70        O1117   1.262       .  A
C70         C864   1.450       .  S
O71          C81   1.267       .  A
O71          V79   1.914       .  S
O72          C82   1.268       .  A
O72          V79   1.914       .  S
O73          C83   1.264       .  A
O73        V2191   1.909   1_455  S
O74          C84   1.263       .  A
O74          V79   1.887       .  S
O75          C84   1.264       .  A
O75          V80   1.914       .  S
O76          C83   1.262       .  A
O76        V2192   1.873       .  S
O77          C82   1.267       .  A
O77          V80   1.911       .  S
O78          C81   1.267       .  A
O78          V80   1.913       .  S
V79        O2185   1.895       .  S
V79          V80   2.086       .  T
V80        O2188   1.898       .  S
C81         C805   1.497       .  S
C82         C990   1.506       .  S
C83         C833   1.470       .  S
C84         C819   1.477       .  S
O85        C1151   1.269       .  A
O85          V93   1.908       .  S
O86        C1152   1.268       .  A
O86          V93   1.911       .  S
O87        C1153   1.257       .  A
O87          V93   1.889       .  S
O88        C1154   1.257       .  A
O88          V93   1.872       .  S
O89          C98   1.258       .  A
O89          V94   1.885       .  S
O90          C97   1.262       .  A
O90          V94   1.881       .  S
O91          C96   1.266       .  A
O91          V94   1.907       .  S
O92          C95   1.268       .  A
O92          V94   1.916       .  S
V93        V1150   2.085   1_545  T
V94        V1149   2.088       .  T
C95        O1141   1.267       .  A
C95         C791   1.519       .  S
C96        O1142   1.265       .  A
C96         C962   1.491       .  S
C97        O1143   1.259       .  A
C97         C878   1.459       .  S
C98        O1144   1.260       .  A
C98         C861   1.451       .  S
O99         C109   1.276       .  A
O99         V107   1.939       .  S
O100        C110   1.274       .  A
O100        V107   1.931       .  S
O101        C111   1.258       .  A
O101        V107   1.870       .  S
O102        C112   1.256       .  A
O102        V107   1.882       .  S
O103        C112   1.269       .  A
O103        V108   1.912       .  S
O104        C111   1.267       .  A
O104        V108   1.920       .  S
O105        C110   1.262       .  A
O105        V108   1.894       .  S
O106        C109   1.264       .  A
O106        V108   1.900       .  S
V107        V108   2.084       .  T
C109        C777   1.530       .  S
C110        C906   1.505       .  S
C111        C822   1.472       .  S
C112        C836   1.469       .  S
N113        C118   1.376   1_565  A
N113        C117   1.363       .  A
N113        H145   1.043       .  S
N114        C121   1.350   1_545  A
N114        C122   1.366   1_545  A
N115        C120   1.357       .  A
N115        C119   1.379       .  A
N115        H146   1.042       .  S
N116        C123   1.377       .  A
N116        C124   1.360       .  A
C117        C125   1.387   1_565  A
C117       C2245   1.437       .  A
C118        C126   1.386       .  A
C118       C1190   1.449   1_545  A
C119        C127   1.384       .  A
C119        C136   1.449       .  A
C120        C135   1.441       .  A
C120        C128   1.391       .  A
C121        C133   1.426   1_565  A
C121        C129   1.390       .  A
C122        C130   1.384       .  A
C122       C1192   1.436   1_565  A
C123        C131   1.388       .  A
C123        C134   1.457   1_655  A
C124        C132   1.385       .  A
C124       C2247   1.439       .  A
C125        C126   1.382       .  A
C125        H137   1.081       .  S
C126        H138   1.082       .  S
C127        C128   1.385       .  A
C127        H139   1.082       .  S
C128        H140   1.082       .  S
C129        C130   1.379       .  A
C129        H141   1.081       .  S
C130        H142   1.081       .  S
C131        C132   1.379       .  A
C131        H143   1.080   1_655  S
C132        H144   1.082       .  S
C133        C763   1.506       .  S
C133       C2229   1.437       .  A
C134        C204   1.608       .  S
C134       C1174   1.442   1_455  A
C135        C850   1.515       .  S
C135       C2236   1.443       .  A
C136        C202   1.588       .  S
C136       C1178   1.438       .  A
N147        C152   1.367       .  A
N147        C151   1.353       .  A
N147        H179   1.045       .  S
N148        C155   1.347       .  A
N148        C156   1.368       .  A
N149        C154   1.344   1_455  A
N149        C153   1.368       .  A
N149        H180   1.045   1_455  S
N150        C157   1.370       .  A
N150        C158   1.350       .  A
C151        C159   1.390       .  A
C151        C167   1.428       .  A
C152        C168   1.436       .  A
C152        C160   1.386       .  A
C153        C161   1.384       .  A
C153        C170   1.434       .  A
C154        C162   1.393   1_655  A
C154       C2281   1.423       .  A
C155        C163   1.393       .  A
C155       C2279   1.428   1_455  A
C156        C170   1.437       .  A
C156        C164   1.383       .  A
C157        C165   1.388       .  A
C157        C168   1.444       .  A
C158        C166   1.391       .  A
C158        C169   1.436       .  A
C159        C160   1.387       .  A
C159        H171   1.082       .  S
C160        H172   1.082       .  S
C161        C162   1.390       .  A
C161        H173   1.082       .  S
C162        H174   1.082       .  S
C163        C164   1.386       .  A
C163        H175   1.082       .  S
C164        H176   1.082       .  S
C165        C166   1.390       .  A
C165        H177   1.078       .  S
C166        H178   1.082       .  S
C167        C749   1.516       .  S
C167       C2267   1.430       .  A
C168        C237   1.582       .  S
C169        C808   1.529       .  S
C169       C2266   1.442       .  A
C170        C235   1.579       .  S
N181        C186   1.375       .  A
N181        C185   1.356       .  A
N181        H213   1.043       .  S
N182        C189   1.359       .  A
N182        C190   1.372       .  A
N183        C188   1.357       .  A
N183        C187   1.377       .  A
N183        H214   1.042       .  S
N184        C191   1.371       .  A
N184        C192   1.353       .  A
C185        C193   1.390       .  A
C185        C201   1.436       .  A
C186        C202   1.447       .  A
C186        C194   1.386       .  A
C187        C195   1.387       .  A
C187        C204   1.448       .  A
C188        C203   1.430       .  A
C188        C196   1.385       .  A
C189        C201   1.436       .  A
C189        C197   1.385       .  A
C190        C204   1.450       .  A
C190        C198   1.388       .  A
C191        C199   1.384       .  A
C191        C202   1.442       .  A
C192        C200   1.388       .  A
C192        C203   1.431       .  A
C193        C194   1.387       .  A
C193        H205   1.082       .  S
C194        H206   1.082       .  S
C195        C196   1.378       .  A
C195        H207   1.082       .  S
C196        H208   1.082       .  S
C197        C198   1.382       .  A
C197        H209   1.082       .  S
C198        H210   1.081       .  S
C199        C200   1.381       .  A
C199        H211   1.080       .  S
C200        H212   1.081       .  S
C201        C735   1.519       .  S
C203        C794   1.505       .  S
N215        C220   1.358       .  A
N215        C219   1.380       .  A
N215        H247   1.041       .  S
N216        C223   1.361       .  A
N216        C224   1.352       .  A
N217        C222   1.367       .  A
N217        C221   1.364       .  A
N217        H248   1.044       .  S
N218        C225   1.366       .  A
N218        C226   1.379       .  A
C219        C227   1.383       .  A
C219        C235   1.450       .  A
C220        C236   1.443       .  A
C220        C228   1.392       .  A
C221        C229   1.380       .  A
C221        C238   1.423       .  A
C222        C237   1.424       .  A
C222        C230   1.392       .  A
C223        C235   1.447       .  A
C223        C231   1.390       .  A
C224        C238   1.430       .  A
C224        C232   1.384       .  A
C225        C233   1.390       .  A
C225        C236   1.445       .  A
C226        C234   1.380       .  A
C226        C237   1.448       .  A
C227        C228   1.373       .  A
C227        H239   1.081       .  S
C228        H240   1.079       .  S
C229        C230   1.376       .  A
C229        H241   1.083       .  S
C230        H242   1.083       .  S
C231        C232   1.391       .  A
C231        H243   1.077       .  S
C232        H244   1.082       .  S
C233        C234   1.368       .  A
C233        H245   1.080       .  S
C234        H246   1.075       .  S
C236        C721   1.519       .  S
C238        C780   1.519       .  S
N249        C254   1.361       .  A
N249        C253   1.376   1_565  A
N249        H281   1.043       .  S
N250        C257   1.368   1_565  A
N250        C258   1.354       .  A
N251        C256   1.376       .  A
N251        C255   1.361       .  A
N251        H282   1.042   1_655  S
N252        C259   1.360       .  A
N252        C260   1.369       .  A
C253        C261   1.385       .  A
C253        C269   1.444   1_556  A
C254        C270   1.438       .  A
C254        C262   1.390   1_565  A
C255        C263   1.390       .  A
C255        C272   1.440       .  A
C256        C271   1.442       .  A
C256        C264   1.385       .  A
C257        C269   1.435       .  A
C257        C265   1.386       .  A
C258        C266   1.388   1_565  A
C258       C1328   1.428       .  A
C259        C267   1.388       .  A
C259       C1326   1.433       .  A
C260        C268   1.386       .  A
C260        C271   1.441   1_556  A
C261        C262   1.378       .  A
C261        H273   1.082       .  S
C262        H274   1.082       .  S
C263        C264   1.382       .  A
C263        H275   1.082       .  S
C264        H276   1.082       .  S
C265        C266   1.379       .  A
C265        H277   1.081       .  S
C266        H278   1.082       .  S
C267        C268   1.378       .  A
C267        H279   1.082       .  S
C268        H280   1.082       .  S
C269        C305   1.593       .  S
C270        C707   1.520       .  S
C270       C1315   1.438       .  A
C271        C303   1.597   1_655  S
C272       C1004   1.523       .  S
C272       C1314   1.437       .  A
N283        C288   1.354       .  A
N283        C287   1.373       .  A
N283        H315   1.043   1_455  S
N284        C291   1.373       .  A
N284        C292   1.354       .  A
N285        C290   1.378       .  A
N285        C289   1.357       .  A
N285        H316   1.043       .  S
N286        C293   1.351       .  A
N286        C294   1.368       .  A
C287        C295   1.384       .  A
C287        C303   1.439   1_556  A
C288        C304   1.429       .  A
C288        C296   1.391       .  A
C289        C297   1.390   1_455  A
C289        C306   1.438       .  A
C290        C305   1.446       .  A
C290        C298   1.385       .  A
C291        C303   1.448       .  A
C291        C299   1.386       .  A
C292        C306   1.436       .  A
C292        C300   1.389       .  A
C293        C301   1.390   1_455  A
C293        C304   1.426       .  A
C294        C302   1.384       .  A
C294        C305   1.436   1_556  A
C295        C296   1.373       .  A
C295        H307   1.081       .  S
C296        H308   1.081       .  S
C297        C298   1.381   1_655  A
C297        H309   1.082       .  S
C298        H310   1.082   1_455  S
C299        C300   1.382       .  A
C299        H311   1.080       .  S
C300        H312   1.083       .  S
C301        C302   1.370   1_655  A
C301        H313   1.081       .  S
C302        H314   1.080   1_455  S
C304        C693   1.489       .  S
C306        C976   1.502       .  S
N317        C322   1.381       .  A
N317        C321   1.359       .  A
N317        H349   1.043       .  S
N318        C325   1.352       .  A
N318        C326   1.369       .  A
N319        C324   1.356       .  A
N319        C323   1.382       .  A
N319        H350   1.043       .  S
N320        C327   1.366       .  A
N320        C328   1.349       .  A
C321        C329   1.394       .  A
C321       C1393   1.449       .  A
C322        C338   1.453       .  A
C322        C330   1.383       .  A
C323        C331   1.386       .  A
C323        C340   1.457       .  A
C324        C339   1.445       .  A
C324        C332   1.392       .  A
C325        C337   1.431       .  A
C325        C333   1.392       .  A
C326        C340   1.434   1_556  A
C326        C334   1.383       .  A
C327        C335   1.384       .  A
C327        C338   1.434   1_554  A
C328        C336   1.389       .  A
C328       C1395   1.423       .  A
C329        C330   1.389       .  A
C329        H341   1.082       .  S
C330        H342   1.082       .  S
C331        C332   1.394       .  A
C331        H343   1.081       .  S
C332        H344   1.082       .  S
C333        C334   1.382       .  A
C333        H345   1.082       .  S
C334        H346   1.082       .  S
C335        C336   1.385       .  A
C335        H347   1.082       .  S
C336        H348   1.082       .  S
C337        C679   1.504       .  S
C337       C1377   1.432       .  A
C338        C374   1.591       .  S
C339        C920   1.519       .  S
C339       C1384   1.448       .  A
C340        C372   1.602       .  S
N351        C356   1.379       .  A
N351        C355   1.360       .  A
N351        H383   1.044       .  S
N352        C359   1.358       .  A
N352        C360   1.376       .  A
N353        C358   1.353       .  A
N353        C357   1.372       .  A
N353        H384   1.044       .  S
N354        C361   1.374       .  A
N354        C362   1.359       .  A
C355        C363   1.393       .  A
C355        C371   1.446       .  A
C356        C372   1.451       .  A
C356        C364   1.385       .  A
C357        C365   1.383       .  A
C357        C374   1.436       .  A
C358        C373   1.432       .  A
C358        C366   1.392       .  A
C359        C371   1.442       .  A
C359        C367   1.390       .  A
C360        C374   1.453   1_554  A
C360        C368   1.385       .  A
C361        C369   1.387       .  A
C361        C372   1.453   1_556  A
C362        C370   1.387       .  A
C362        C373   1.436       .  A
C363        C364   1.390       .  A
C363        H375   1.082       .  S
C364        H376   1.082       .  S
C365        C366   1.382       .  A
C365        H377   1.082       .  S
C366        H378   1.082       .  S
C367        C368   1.386       .  A
C367        H379   1.082       .  S
C368        H380   1.081       .  S
C369        C370   1.383       .  A
C369        H381   1.081       .  S
C370        H382   1.082       .  S
C371        C889   1.518       .  S
C373        C665   1.508       .  S
O385        C395   1.274       .  A
O385        V393   1.930       .  S
O386       C2508   1.272       .  A
O386        V393   1.929       .  S
O387        C397   1.259       .  A
O387        V393   1.899   1_545  S
O388        C398   1.261       .  A
O388       V1449   1.874       .  S
O389       C2510   1.263       .  A
O389       V1450   1.909       .  S
O390       C2509   1.261       .  A
O390        V394   1.877       .  S
O391        C396   1.269       .  A
O391        V394   1.922       .  S
O392       C2507   1.270       .  A
O392        V394   1.921       .  S
V393       O1444   1.873       .  S
V393       V2506   2.085       .  T
V394       O1445   1.884       .  S
V394       V2505   2.086       .  T
C395       O2504   1.266       .  A
C395        C710   1.533       .  S
C396       O2498   1.265       .  A
C396        C651   1.495       .  S
C397       O2502   1.265       .  A
C397       C2749   1.465       .  S
C398       O2501   1.263       .  A
C398       C2735   1.465       .  S
O399        C409   1.262       .  A
O399        V407   1.890       .  S
O400       C2522   1.265       .  A
O400        V407   1.898       .  S
O401       C2523   1.264       .  A
O401        V407   1.893   1_655  S
O402       C2524   1.261       .  A
O402        V407   1.899       .  S
O403        C412   1.260       .  A
O403        V408   1.884       .  S
O404        C411   1.258       .  A
O404        V408   1.892       .  S
O405        C410   1.271       .  A
O405        V408   1.921       .  S
O406       C2521   1.268       .  A
O406        V408   1.917       .  S
V407       V2520   2.088   1_455  T
V408       V2519   2.083       .  T
C409       O2518   1.264   1_455  A
C409        C696   1.478       .  S
C410       O2512   1.268       .  A
C410        C609   1.523       .  S
C411       O2513   1.264       .  A
C411        C626   1.472       .  S
C412       O2514   1.263       .  A
C412        C640   1.465       .  S
O413        C423   1.269       .  A
O413        V421   1.911       .  S
O414        C424   1.267       .  A
O414        V421   1.907       .  S
O415        C425   1.260       .  A
O415        V421   1.898       .  S
O416        C426   1.262       .  A
O416       V1477   1.872       .  S
O417        C426   1.260       .  A
O417       V1478   1.895       .  S
O418        C425   1.263       .  A
O418        V422   1.880       .  S
O419        C424   1.263       .  A
O419        V422   1.888       .  S
O420        C423   1.264       .  A
O420        V422   1.897       .  S
V421       O1472   1.884       .  S
V421        V422   2.082       .  T
V422       O1473   1.890       .  S
C423        C682   1.514       .  S
C424        C595   1.502       .  S
C425        C567   1.462       .  S
C426        C581   1.465       .  S
O427        C437   1.269       .  A
O427        V435   1.922       .  S
O428        C438   1.268       .  A
O428        V435   1.914       .  S
O429        C439   1.264       .  A
O429        V435   1.884       .  S
O430        C440   1.262       .  A
O430        V435   1.905       .  S
O431        C440   1.264       .  A
O431        V436   1.892       .  S
O432        C439   1.259       .  A
O432        V436   1.892       .  S
O433        C438   1.270       .  A
O433        V436   1.918       .  S
O434        C437   1.268       .  A
O434        V436   1.916       .  S
V435        V436   2.083       .  T
C437        C668   1.504       .  S
C438        C553   1.525       .  S
C439        C584   1.465       .  S
C440        C570   1.472       .  S
O441       C1507   1.264       .  A
O441        V449   1.896       .  S
O442       C1508   1.264       .  A
O442        V449   1.898       .  S
O443       C1509   1.262       .  A
O443        V449   1.877       .  S
O444       C1510   1.259       .  A
O444       V2561   1.895       .  S
O445        C454   1.264       .  A
O445       V2562   1.888       .  S
O446        C453   1.258       .  A
O446        V450   1.894       .  S
O447        C452   1.272       .  A
O447        V450   1.924       .  S
O448        C451   1.271       .  A
O448        V450   1.924       .  S
V449       O2556   1.892       .  S
V449       V1506   2.086       .  T
V450       O2557   1.880       .  S
V450       V1505   2.086       .  T
C451       O1497   1.263       .  A
C451        C766   1.504       .  S
C452       O1498   1.264       .  A
C452        C654   1.511       .  S
C453       O1499   1.269       .  A
C453        C525   1.475       .  S
C454       O1500   1.260       .  A
C454        C542   1.467       .  S
O455        C465   1.268       .  A
O455        V463   1.913       .  S
O456        C466   1.268       .  A
O456        V463   1.910       .  S
O457        C467   1.265       .  A
O457       V2575   1.879   1_455  S
O458        C468   1.258       .  A
O458        V463   1.890       .  S
O459        C468   1.263       .  A
O459        V464   1.886       .  S
O460        C467   1.258       .  A
O460       V2576   1.897   1_455  S
O461        C466   1.269       .  A
O461        V464   1.917       .  S
O462        C465   1.268       .  A
O462        V464   1.912       .  S
V463       O2569   1.880       .  S
V463        V464   2.086       .  T
V464       O2572   1.895       .  S
C465        C752   1.521       .  S
C466        C612   1.514       .  S
C467        C514   1.460       .  S
C468        C497   1.458       .  S
O469        C479   1.266       .  A
O469        V477   1.902       .  S
O470       C1536   1.267       .  A
O470        V477   1.906       .  S
O471       C1537   1.261       .  A
O471        V477   1.905       .  S
O472       C1538   1.264   1_545  A
O472        V477   1.887       .  S
O473        C482   1.259       .  A
O473        V478   1.894       .  S
O474        C481   1.262       .  A
O474        V478   1.881       .  S
O475        C480   1.268       .  A
O475        V478   1.908       .  S
O476       C1535   1.269       .  A
O476        V478   1.916       .  S
V477       V1534   2.087       .  T
V478       V1533   2.086       .  T
C479       O1532   1.268       .  A
C479       C1794   1.507       .  S
C480       O1526   1.264       .  A
C480        C598   1.501       .  S
C481       O1527   1.260       .  A
C481       C1584   1.462       .  S
C482       O1528   1.262       .  A
C482       C1595   1.458       .  S
O483        C493   1.264       .  A
O483        V491   1.900       .  S
O484        C494   1.266       .  A
O484        V491   1.913       .  S
O485        C495   1.265       .  A
O485        V491   1.917       .  S
O486        C496   1.266       .  A
O486        V491   1.896       .  S
O487        C496   1.258       .  A
O487        V492   1.890       .  S
O488        C495   1.263       .  A
O488        V492   1.882       .  S
O489        C494   1.270       .  A
O489        V492   1.922       .  S
O490        C493   1.271       .  A
O490        V492   1.921       .  S
V491        V492   2.086       .  T
C493        C724   1.510       .  S
C494        C556   1.505       .  S
C495        C500   1.475       .  S
C496        C511   1.467       .  S
C497        C498   1.403       .  A
C497        C502   1.406       .  A
C498        C499   1.405       .  A
C498        C503   1.452       .  S
C499        C500   1.411       .  A
C499        C506   1.441       .  S
C500        C501   1.406       .  A
C501        C502   1.409       .  A
C501        C504   1.441       .  S
C502        C505   1.449       .  S
C503        N510   1.157       .  T
C504        N509   1.156       .  T
C505        N507   1.157       .  T
C506        N508   1.155       .  T
C511        C512   1.414       .  A
C511        C516   1.411       .  A
C512        C513   1.403       .  A
C512        C517   1.448       .  S
C513        C514   1.401       .  A
C513        C520   1.452       .  S
C514        C515   1.405       .  A
C515        C516   1.409       .  A
C515        C518   1.447       .  S
C516        C519   1.449       .  S
C517        N524   1.156       .  T
C518        N523   1.157       .  T
C519        N521   1.157       .  T
C520        N522   1.157       .  T
C525        C530   1.415       .  A
C525       C1582   1.417       .  A
C526        C527   1.404       .  A
C526       C1581   1.405       .  A
C526        C531   1.447       .  S
C527       C1584   1.408       .  A
C527        C534   1.450       .  S
C528       C1537   1.467       .  S
C528        C529   1.400       .  A
C528       C1583   1.399       .  A
C529        C530   1.410       .  A
C529        C532   1.444       .  S
C530        C533   1.447       .  S
C531        N538   1.156       .  T
C532        N537   1.156       .  T
C533        N535   1.157       .  T
C534        N536   1.157       .  T
C539       C1538   1.460       .  S
C539        C540   1.407       .  A
C539       C1600   1.406       .  A
C540        C541   1.403       .  A
C540        C545   1.450       .  S
C541        C542   1.405       .  A
C541        C548   1.446       .  S
C542       C1599   1.409       .  A
C543        C544   1.402       .  A
C543       C1598   1.408       .  A
C543        C546   1.451       .  S
C544       C1595   1.408       .  A
C544        C547   1.450       .  S
C545        N552   1.157       .  T
C546        N551   1.156       .  T
C547        N549   1.156       .  T
C548        N550   1.156       .  T
C553        C554   1.424       .  A
C553        C558   1.423       .  A
C554        C555   1.420       .  A
C554        C559   1.444       .  S
C555        C556   1.410       .  A
C555        C562   1.450       .  S
C556        C557   1.415       .  A
C557        C558   1.422       .  A
C557        C560   1.451       .  S
C558        C561   1.449       .  S
C559        N566   1.155       .  T
C560        N565   1.157       .  T
C561        N563   1.157       .  T
C562        N564   1.157       .  T
C567        C568   1.408       .  A
C567        C572   1.399       .  A
C568        C569   1.407       .  A
C568        C573   1.451       .  S
C569        C570   1.411       .  A
C569        C576   1.449       .  S
C570        C571   1.413       .  A
C571        C572   1.407       .  A
C571        C574   1.444       .  S
C572        C575   1.450       .  S
C573        N580   1.157       .  T
C574        N579   1.156       .  T
C575        N577   1.157       .  T
C576        N578   1.157       .  T
C581        C582   1.410       .  A
C581        C586   1.408       .  A
C582        C583   1.409       .  A
C582        C587   1.449       .  S
C583        C584   1.407       .  A
C583        C590   1.444       .  S
C584        C585   1.408       .  A
C585        C586   1.395       .  A
C585        C588   1.450       .  S
C586        C589   1.454       .  S
C587        N594   1.157       .  T
C588        N593   1.156       .  T
C589        N591   1.157       .  T
C590        N592   1.156       .  T
C595        C600   1.420       .  A
C595       C1652   1.417       .  A
C596        C597   1.417       .  A
C596       C1651   1.425       .  A
C596        C601   1.451       .  S
C597       C1654   1.412       .  A
C597        C604   1.454       .  S
C598        C599   1.416       .  A
C598       C1653   1.419       .  A
C599        C600   1.411       .  A
C599        C602   1.452       .  S
C600        C603   1.451       .  S
C601        N608   1.157       .  T
C602        N607   1.157       .  T
C603        N605   1.156       .  T
C604        N606   1.158       .  T
C609        C610   1.423       .  A
C609       C2726   1.424       .  A
C610        C611   1.424       .  A
C610        C615   1.451       .  S
C611        C612   1.419       .  A
C611        C618   1.451       .  S
C612       C2725   1.415       .  A
C613        C614   1.414   1_655  A
C613       C2724   1.420       .  A
C613        C616   1.452   1_655  S
C614       C2721   1.419       .  A
C614        C617   1.454       .  S
C615        N622   1.158       .  T
C616        N621   1.157       .  T
C617        N619   1.158       .  T
C618        N620   1.157       .  T
C623       C2510   1.466       .  S
C623        C628   1.405       .  A
C623       C2736   1.407       .  A
C624        C625   1.407       .  A
C624       C2735   1.406       .  A
C624        C629   1.451       .  S
C625       C2738   1.412       .  A
C625        C632   1.449       .  S
C626        C627   1.411       .  A
C626       C2737   1.413       .  A
C627        C628   1.411       .  A
C627        C630   1.446       .  S
C628        C631   1.447       .  S
C629        N636   1.157       .  T
C630        N635   1.156       .  T
C631        N633   1.157       .  T
C632        N634   1.157       .  T
C637       C2509   1.458       .  S
C637        C638   1.402       .  A
C637       C2754   1.403       .  A
C638        C639   1.408       .  A
C638        C643   1.448       .  S
C639        C640   1.411       .  A
C639        C646   1.448       .  S
C640       C2753   1.411       .  A
C641        C642   1.404       .  A
C641       C2752   1.414       .  A
C641        C644   1.447       .  S
C642       C2749   1.400       .  A
C642        C645   1.452       .  S
C643        N650   1.157       .  T
C644        N649   1.156       .  T
C645        N647   1.157       .  T
C646        N648   1.156       .  T
C651        C652   1.408       .  A
C651       C3824   1.412       .  A
C652        C653   1.414       .  A
C652        C657   1.444       .  S
C653        C654   1.413       .  A
C653        C660   1.442       .  S
C654       C3823   1.420       .  A
C655        C656   1.415       .  A
C655       C3822   1.420       .  A
C655        C658   1.448       .  S
C656       C3819   1.412       .  A
C656        C659   1.451       .  S
C657        N664   1.157       .  T
C658        N663   1.156       .  T
C659        N661   1.157       .  T
C660        N662   1.155       .  T
C665        C666   1.411       .  A
C665        C670   1.416       .  A
C666        C667   1.415       .  A
C666        C671   1.452       .  S
C667        C668   1.413       .  A
C667        C674   1.442       .  S
C668        C669   1.413       .  A
C669        C670   1.420       .  A
C669        C672   1.447       .  S
C670        C673   1.449       .  S
C671        N678   1.157       .  T
C672        N677   1.157       .  T
C673        N675   1.157       .  T
C674        N676   1.155       .  T
C679        C684   1.410       .  A
C679       C1736   1.410       .  A
C680        C681   1.422       .  A
C680       C1735   1.421       .  A
C680        C685   1.451       .  S
C681       C1738   1.417       .  A
C681        C688   1.452       .  S
C682        C683   1.428       .  A
C682       C1737   1.424       .  A
C683        C684   1.415       .  A
C683        C686   1.452       .  S
C684        C687   1.453       .  S
C685        N692   1.157       .  T
C686        N691   1.158       .  T
C687        N689   1.157       .  T
C688        N690   1.158       .  T
C693        C694   1.411       .  A
C693       C2810   1.411   1_455  A
C694        C695   1.405       .  A
C694        C699   1.452       .  S
C695        C696   1.415       .  A
C695        C702   1.452       .  S
C696       C2809   1.415   1_455  A
C697        C698   1.418       .  A
C697       C2808   1.416       .  A
C697        C700   1.450       .  S
C698       C2805   1.414       .  A
C698        C701   1.450       .  S
C699        N706   1.157       .  T
C700        N705   1.158       .  T
C701        N703   1.157       .  T
C702        N704   1.157       .  T
C707        C712   1.413       .  A
C707       C3876   1.410       .  A
C708        C709   1.413       .  A
C708       C3875   1.411       .  A
C708        C713   1.453       .  S
C709       C3878   1.423       .  A
C709        C716   1.452       .  S
C710        C711   1.427       .  A
C710       C3877   1.432       .  A
C711        C712   1.424       .  A
C711        C714   1.450       .  S
C712        C715   1.451       .  S
C713        N720   1.157       .  T
C714        N719   1.158       .  T
C715        N717   1.157       .  T
C716        N718   1.157       .  T
C721        C722   1.416       .  A
C721        C726   1.414       .  A
C722        C723   1.419       .  A
C722        C727   1.451       .  S
C723        C724   1.421       .  A
C723        C730   1.451       .  S
C724        C725   1.421       .  A
C725        C726   1.414       .  A
C725        C728   1.450       .  S
C726        C729   1.452       .  S
C727        N734   1.157       .  T
C728        N733   1.157       .  T
C729        N731   1.157       .  T
C730        N732   1.157       .  T
C735        C740   1.415       .  A
C735       C1792   1.414       .  A
C736        C737   1.414       .  A
C736       C1791   1.410       .  A
C736        C741   1.452       .  S
C737       C1794   1.422       .  A
C737        C744   1.451       .  S
C738       C1535   1.525       .  S
C738        C739   1.424       .  A
C738       C1793   1.426       .  A
C739        C740   1.420       .  A
C739        C742   1.449       .  S
C740        C743   1.452       .  S
C741        N748   1.157       .  T
C742        N747   1.156       .  T
C743        N745   1.157       .  T
C744        N746   1.157       .  T
C749        C754   1.413       .  A
C749       C2862   1.414       .  A
C750        C751   1.414       .  A
C750       C2861   1.409       .  A
C750        C755   1.452       .  S
C751       C2864   1.424       .  A
C751        C758   1.451       .  S
C752        C753   1.427       .  A
C752       C2863   1.423       .  A
C753        C754   1.420       .  A
C753        C756   1.450       .  S
C754        C757   1.452       .  S
C755        N762   1.157       .  T
C756        N761   1.157       .  T
C757        N759   1.157       .  T
C758        N760   1.158       .  T
C763        C768   1.415       .  A
C763       C3932   1.410   1_545  A
C764        C765   1.418       .  A
C764       C3931   1.413       .  A
C764        C769   1.451       .  S
C765       C3934   1.418       .  A
C765        C772   1.450       .  S
C766        C767   1.416       .  A
C766       C3933   1.423       .  A
C767        C768   1.418       .  A
C767        C770   1.449       .  S
C768        C771   1.451       .  S
C769        N776   1.157       .  T
C770        N775   1.158       .  T
C771        N773   1.157       .  T
C772        N774   1.158       .  T
C777        C778   1.429       .  A
C777        C782   1.423       .  A
C778        C779   1.420       .  A
C778        C783   1.451       .  S
C779        C780   1.412       .  A
C779        C786   1.452       .  S
C780        C781   1.419       .  A
C781        C782   1.426       .  A
C781        C784   1.450       .  S
C782        C785   1.450       .  S
C783        N790   1.158       .  T
C784        N789   1.157       .  T
C785        N787   1.157       .  T
C786        N788   1.157       .  T
C791        C796   1.428       .  A
C791       C1848   1.425       .  A
C792        C793   1.413       .  A
C792       C1847   1.424       .  A
C792        C797   1.451       .  S
C793       C1850   1.411   1_545  A
C793        C800   1.453       .  S
C794        C795   1.410       .  A
C794       C1849   1.410       .  A
C795        C796   1.421       .  A
C795        C798   1.451       .  S
C796        C799   1.450       .  S
C797        N804   1.157       .  T
C798        N803   1.157       .  T
C799        N801   1.158       .  T
C800        N802   1.157       .  T
C805        C806   1.411       .  A
C805       C2922   1.410       .  A
C806        C807   1.416       .  A
C806        C811   1.447       .  S
C807        C808   1.425       .  A
C807        C814   1.451       .  S
C808       C2921   1.423       .  A
C809        C810   1.404   1_655  A
C809       C2920   1.420       .  A
C809        C812   1.450   1_655  S
C810       C2917   1.402   1_455  A
C810        C813   1.449       .  S
C811        N818   1.157       .  T
C812        N817   1.157       .  T
C813        N815   1.157       .  T
C814        N816   1.158       .  T
C819        C820   1.407       .  A
C819        C824   1.409       .  A
C820        C821   1.403       .  A
C820        C825   1.449       .  S
C821        C822   1.411       .  A
C821        C828   1.451       .  S
C822        C823   1.411       .  A
C823        C824   1.415       .  A
C823        C826   1.449       .  S
C824        C827   1.447       .  S
C825        N832   1.155       .  T
C826        N831   1.157       .  T
C827        N829   1.157       .  T
C828        N830   1.156       .  T
C833        C834   1.405       .  A
C833        C838   1.404       .  A
C834        C835   1.415       .  A
C834        C839   1.449       .  S
C835        C836   1.416       .  A
C835        C842   1.444       .  S
C836        C837   1.409       .  A
C837        C838   1.404       .  A
C837        C840   1.448       .  S
C838        C841   1.438       .  S
C839        N846   1.157       .  T
C840        N845   1.156       .  T
C841        N843   1.155       .  T
C842        N844   1.156       .  T
C847        C848   1.422       .  A
C847       C4020   1.425       .  A
C848        C849   1.418       .  A
C848        C853   1.450       .  S
C849        C850   1.412       .  A
C849        C856   1.451       .  S
C850       C4019   1.412       .  A
C851        C852   1.421   1_545  A
C851       C4018   1.412   1_545  A
C851        C854   1.449       .  S
C852       C4015   1.426       .  A
C852        C855   1.451   1_565  S
C853        N860   1.157       .  T
C854        N859   1.156       .  T
C855        N857   1.158       .  T
C856        N858   1.157       .  T
C861        C866   1.409       .  A
C861       C1918   1.408       .  A
C862        C863   1.402       .  A
C862       C1917   1.407       .  A
C862        C867   1.452       .  S
C863       C1920   1.410   1_565  A
C863        C870   1.451       .  S
C864        C865   1.407       .  A
C864       C1919   1.407       .  A
C865        C866   1.403       .  A
C865        C868   1.450       .  S
C866        C869   1.451       .  S
C867        N874   1.157       .  T
C868        N873   1.157       .  T
C869        N871   1.157       .  T
C870        N872   1.157       .  T
C875        C876   1.408       .  A
C875       C1936   1.411       .  A
C876        C877   1.408   1_655  A
C876        C881   1.448       .  S
C877        C878   1.407       .  A
C877        C884   1.447       .  S
C878       C1935   1.404       .  A
C879        C880   1.401       .  A
C879       C1934   1.404       .  A
C879        C882   1.452       .  S
C880       C1931   1.412       .  A
C880        C883   1.451       .  S
C881        N888   1.157       .  T
C882        N887   1.157       .  T
C883        N885   1.157   1_545  T
C884        N886   1.157       .  T
C889        C890   1.408       .  A
C889        C894   1.414       .  A
C890        C891   1.419       .  A
C890        C895   1.451       .  S
C891        C892   1.433       .  A
C891        C898   1.452       .  S
C892        C893   1.426       .  A
C893        C894   1.425       .  A
C893        C896   1.449       .  S
C894        C897   1.451       .  S
C895        N902   1.157       .  T
C896        N901   1.157       .  T
C897        N899   1.157       .  T
C898        N900   1.158       .  T
C903        C904   1.413       .  A
C903        C908   1.414       .  A
C904        C905   1.417       .  A
C904        C909   1.449       .  S
C905        C906   1.413       .  A
C905        C912   1.448       .  S
C906        C907   1.421       .  A
C907        C908   1.418       .  A
C907        C910   1.452       .  S
C908        C911   1.449       .  S
C909        N916   1.157       .  T
C910        N915   1.158       .  T
C911        N913   1.157       .  T
C912        N914   1.157       .  T
C917        C922   1.419       .  A
C917       C1974   1.421       .  A
C918        C919   1.413       .  A
C918       C1973   1.427       .  A
C918        C923   1.452       .  S
C919       C1976   1.407       .  A
C919        C926   1.452       .  S
C920        C921   1.415       .  A
C920       C1975   1.416       .  A
C921        C922   1.420       .  A
C921        C924   1.449       .  S
C922        C925   1.451       .  S
C923        N930   1.158   1_545  T
C924        N929   1.157       .  T
C925        N927   1.157       .  T
C926        N928   1.157   1_545  T
C931        C932   1.405       .  A
C931        C936   1.410       .  A
C932        C933   1.397       .  A
C932        C937   1.453       .  S
C933        C934   1.409       .  A
C933        C940   1.450       .  S
C934        C935   1.405       .  A
C935        C936   1.402       .  A
C935        C938   1.451       .  S
C936        C939   1.447       .  S
C937        N944   1.157       .  T
C938        N943   1.157       .  T
C939        N941   1.156       .  T
C940        N942   1.156       .  T
C945        C946   1.402       .  A
C945        C950   1.402       .  A
C946        C947   1.399       .  A
C946        C951   1.449       .  S
C947        C948   1.411       .  A
C947        C954   1.452       .  S
C948        C949   1.409       .  A
C949        C950   1.398       .  A
C949        C952   1.450       .  S
C950        C953   1.450       .  S
C951        N958   1.157       .  T
C952        N957   1.158       .  T
C953        N955   1.157       .  T
C954        N956   1.157       .  T
C959        C964   1.422       .  A
C959       C2016   1.423       .  A
C960        C961   1.411       .  A
C960       C2015   1.413       .  A
C960        C965   1.455   1_545  S
C961       C2018   1.425       .  A
C961        C968   1.451   1_545  S
C962        C963   1.414       .  A
C962       C2017   1.409       .  A
C963        C964   1.416       .  A
C963        C966   1.453       .  S
C964        C967   1.452       .  S
C965        N972   1.157       .  T
C966        N971   1.158       .  T
C967        N969   1.158       .  T
C968        N970   1.157       .  T
C973        C978   1.422       .  A
C973       C3086   1.419   1_455  A
C974        C975   1.415       .  A
C974       C3085   1.428       .  A
C974        C979   1.452       .  S
C975       C3088   1.408       .  A
C975        C982   1.452       .  S
C976        C977   1.409       .  A
C976       C3087   1.411   1_455  A
C977        C978   1.414       .  A
C977        C980   1.451       .  S
C978        C981   1.451       .  S
C979        N986   1.158       .  T
C980        N985   1.157       .  T
C981        N983   1.157       .  T
C982        N984   1.157       .  T
C987        C988   1.413       .  A
C987       C3104   1.413       .  A
C988        C989   1.416       .  A
C988        C993   1.450       .  S
C989        C990   1.418       .  A
C989        C996   1.451       .  S
C990       C3103   1.419       .  A
C991        C992   1.411       .  A
C991       C3102   1.428   1_655  A
C991        C994   1.455       .  S
C992       C3099   1.418   1_655  A
C992        C995   1.455       .  S
C993       N1000   1.157       .  T
C994        N999   1.158       .  T
C995        N997   1.158       .  T
C996        N998   1.157       .  T
C1001      C1067   1.525       .  S
C1001      C1002   1.428       .  A
C1001      C4174   1.421       .  A
C1002      C1003   1.421       .  A
C1002      C1007   1.451   1_655  S
C1003      C1004   1.412       .  A
C1003      C1010   1.452   1_655  S
C1004      C4173   1.417       .  A
C1005      C1006   1.419       .  A
C1005      C4172   1.413       .  A
C1005      C1008   1.450       .  S
C1006      C4169   1.422       .  A
C1006      C1009   1.451       .  S
C1007      N1014   1.158       .  T
C1008      N1013   1.157       .  T
C1009      N1011   1.157       .  T
C1010      N1012   1.157       .  T
C1015      C2125   1.464       .  S
C1015      C1020   1.406       .  A
C1015      C3128   1.409       .  A
C1016      C1017   1.407       .  A
C1016      C3127   1.418       .  A
C1016      C1021   1.453   1_655  S
C1017      C3130   1.414       .  A
C1017      C1024   1.453   1_655  S
C1018      C1019   1.409       .  A
C1018      C3129   1.409       .  A
C1019      C1020   1.402       .  A
C1019      C1022   1.447       .  S
C1020      C1023   1.452       .  S
C1021      N1028   1.158       .  T
C1022      N1027   1.156       .  T
C1023      N1025   1.157       .  T
C1024      N1026   1.157       .  T
C1029      C2126   1.473       .  S
C1029      C1030   1.412       .  A
C1029      C3146   1.414       .  A
C1030      C1031   1.402       .  A
C1030      C1035   1.452       .  S
C1031      C1032   1.406       .  A
C1031      C1038   1.451       .  S
C1032      C3145   1.407       .  A
C1033      C1034   1.409       .  A
C1033      C3144   1.423       .  A
C1033      C1036   1.454   1_455  S
C1034      C3141   1.417       .  A
C1034      C1037   1.454   1_445  S
C1035      N1042   1.157       .  T
C1036      N1041   1.158       .  T
C1037      N1039   1.157       .  T
C1038      N1040   1.157       .  T
C1043      C1048   1.422       .  A
C1043      C4212   1.424       .  A
C1044      C1045   1.417       .  A
C1044      C4211   1.418       .  A
C1044      C1049   1.451       .  S
C1045      C4214   1.415       .  A
C1045      C1052   1.447       .  S
C1046      C1047   1.414       .  A
C1046      C4213   1.413       .  A
C1047      C1048   1.419       .  A
C1047      C1050   1.452       .  S
C1048      C1051   1.450       .  S
C1049      N1056   1.158   1_565  T
C1050      N1055   1.157       .  T
C1051      N1053   1.157       .  T
C1052      N1054   1.156   1_565  T
O1057      C1067   1.266       .  A
O1058      C3180   1.275       .  A
O1058      V1065   1.938       .  S
O1059      C1069   1.258       .  A
O1059      V1065   1.891       .  S
O1060      C1070   1.267       .  A
O1061      C3182   1.261       .  A
O1062      C3181   1.262       .  A
O1062      V1066   1.879   1_565  S
O1064      C2123   1.270       .  A
O1064      V1066   1.917       .  S
V1065      V3178   2.083       .  T
V1066      V3177   2.087       .  T
C1067      O2120   1.273       .  A
C1068      O3170   1.267       .  A
C1068      C2102   1.498       .  S
C1069      O3174   1.265       .  A
C1069      C4183   1.462       .  S
C1070      O3173   1.261       .  A
C1070      C4197   1.473       .  S
O1071      C1081   1.265       .  A
O1071      V1079   1.899       .  S
O1072      C3194   1.265       .  A
O1072      V1079   1.899       .  S
O1073      C3195   1.264       .  A
O1073      V1079   1.895   1_655  S
O1074      C3196   1.262       .  A
O1074      V1079   1.908       .  S
O1075      C1084   1.265       .  A
O1075      V1080   1.897       .  S
O1076      C1083   1.263       .  A
O1076      V1080   1.907       .  S
O1077      C1082   1.263       .  A
O1077      V1080   1.894       .  S
O1078      C3193   1.264       .  A
O1078      V1080   1.896       .  S
V1079      V3192   2.086       .  T
V1080      V3191   2.086       .  T
C1081      O3190   1.264       .  A
C1081      C2029   1.497       .  S
C1082      O3184   1.263       .  A
C1082      C2043   1.480       .  S
C1083      O3185   1.263       .  A
C1083      C2088   1.472       .  S
C1084      O3186   1.261       .  A
C1084      C2074   1.474       .  S
O1085      C1095   1.270       .  A
O1085      V1093   1.917       .  S
O1086      C1096   1.270       .  A
O1086      V1093   1.920       .  S
O1087      C1097   1.258       .  A
O1087      V1093   1.897       .  S
O1088      C1098   1.261       .  A
O1089      C1098   1.260       .  A
O1090      C1097   1.265   1_565  A
O1090      V1094   1.874   1_565  S
O1091      C1096   1.262       .  A
O1091      V1094   1.885       .  S
O1092      C1095   1.262       .  A
O1092      V1094   1.891       .  S
V1093      V1094   2.085       .  T
C1095      C1973   1.506       .  S
C1096      C2015   1.498       .  S
C1097      C1987   1.465   1_545  S
C1098      C2001   1.459       .  S
O1099      C1109   1.273       .  A
O1099      V1107   1.929       .  S
O1100      C1110   1.275       .  A
O1100      V1107   1.932       .  S
O1101      C1111   1.258       .  A
O1101      V1107   1.878       .  S
O1102      C1112   1.258       .  A
O1102      V1107   1.893       .  S
O1103      C1112   1.267       .  A
O1103      V1108   1.901       .  S
O1104      C1111   1.265       .  A
O1104      V1108   1.908       .  S
O1105      C1110   1.267       .  A
O1105      V1108   1.913       .  S
O1106      C1109   1.265       .  A
O1106      V1108   1.904       .  S
V1107      V1108   2.085       .  T
C1109      C1948   1.517       .  S
C1110      C1959   1.530       .  S
C1111      C2004   1.465       .  S
C1112      C1990   1.469       .  S
O1113      C1123   1.269       .  A
O1113      V1121   1.915       .  S
O1114      C1124   1.269       .  A
O1114      V1121   1.910       .  S
O1115      C1125   1.263       .  A
O1115      V3233   1.884       .  S
O1116      C1126   1.257   1_565  A
O1116      V1121   1.882   1_565  S
O1117      V1122   1.880       .  S
O1118      V3234   1.903       .  S
O1119      V1122   1.903       .  S
O1120      V1122   1.907       .  S
V1121      O3227   1.877       .  S
V1122      O3230   1.900       .  S
C1123      C1903   1.527       .  S
C1124      C2099   1.517       .  S
C1125      C1931   1.465   1_565  S
C1126      C1920   1.457       .  S
O1127      C1137   1.265       .  A
O1127      V1135   1.900       .  S
O1128      C1138   1.264       .  A
O1128      V1135   1.895       .  S
O1129      C1139   1.255       .  A
O1129      V3247   1.867       .  S
O1130      C1140   1.264       .  A
O1130      V1135   1.885       .  S
O1131      C1140   1.262       .  A
O1131      V1136   1.907       .  S
O1132      C1139   1.264       .  A
O1132      V3248   1.895       .  S
O1133      C1138   1.263       .  A
O1133      V1136   1.898       .  S
O1134      C1137   1.265       .  A
O1134      V1136   1.903       .  S
V1135      O3241   1.893       .  S
V1135      V1136   2.089       .  T
V1136      O3244   1.885       .  S
C1137      C1861   1.488       .  S
C1138      C2046   1.482       .  S
C1139      C1889   1.455       .  S
C1140      C1875   1.469       .  S
O1141      V1149   1.904       .  S
O1142      V1149   1.903       .  S
O1143      V1149   1.894       .  S
O1144      V1149   1.870       .  S
O1145      C1154   1.260   1_565  A
O1145      V1150   1.891       .  S
O1146      C1153   1.262       .  A
O1146      V1150   1.882   1_545  S
O1147      C1152   1.265       .  A
O1147      V1150   1.897   1_545  S
O1148      C1151   1.264   1_565  A
O1148      V1150   1.899       .  S
C1151      C1847   1.515       .  S
C1152      C2018   1.514       .  S
C1153      C1934   1.455       .  S
C1154      C1917   1.452   1_545  S
O1155      C1165   1.270       .  A
O1155      V1163   1.918       .  S
O1156      C1166   1.271       .  A
O1156      V1163   1.927       .  S
O1157      C1167   1.263       .  A
O1157      V1163   1.887       .  S
O1158      C1168   1.259       .  A
O1158      V1163   1.892       .  S
O1159      C1168   1.260       .  A
O1159      V1164   1.879       .  S
O1160      C1167   1.258       .  A
O1160      V1164   1.895       .  S
O1161      C1166   1.270       .  A
O1161      V1164   1.918       .  S
O1162      C1165   1.270       .  A
O1162      V1164   1.924       .  S
V1163      V1164   2.084       .  T
C1165      C1833   1.538       .  S
C1166      C1962   1.524       .  S
C1167      C1878   1.462       .  S
C1168      C1892   1.454       .  S
N1169      C1174   1.373       .  A
N1169      C1173   1.357       .  A
N1169      H1201   1.044       .  S
N1170      C1177   1.352       .  A
N1170      C1178   1.368       .  A
N1171      C1176   1.356       .  A
N1171      C1175   1.380       .  A
N1171      H1202   1.041   1_545  S
N1172      C1179   1.376   1_565  A
N1172      C1180   1.361   1_565  A
C1173      C1181   1.388       .  A
C1173      C3301   1.430       .  A
C1174      C1182   1.386       .  A
C1175      C1183   1.384       .  A
C1175      C1192   1.450       .  A
C1176      C1191   1.442       .  A
C1176      C1184   1.392       .  A
C1177      C1189   1.428       .  A
C1177      C1185   1.390       .  A
C1178      C1186   1.383       .  A
C1179      C1187   1.388       .  A
C1179      C1190   1.455   1_545  A
C1180      C1188   1.385       .  A
C1180      C3303   1.439   1_545  A
C1181      C1182   1.381       .  A
C1181      H1193   1.082       .  S
C1182      H1194   1.082   1_655  S
C1183      C1184   1.385       .  A
C1183      H1195   1.082       .  S
C1184      H1196   1.081       .  S
C1185      C1186   1.378       .  A
C1185      H1197   1.081       .  S
C1186      H1198   1.080       .  S
C1187      C1188   1.379       .  A
C1187      H1199   1.080       .  S
C1188      H1200   1.083       .  S
C1189      C1819   1.507       .  S
C1189      C3285   1.438       .  A
C1190      C1260   1.614       .  S
C1191      C1906   1.514       .  S
C1191      C3292   1.443       .  A
C1192      C1258   1.585       .  S
N1203      C1208   1.367       .  A
N1203      C1207   1.349       .  A
N1203      H1235   1.045       .  S
N1204      C1211   1.352       .  A
N1204      C1212   1.374       .  A
N1205      C1210   1.348       .  A
N1205      C1209   1.373       .  A
N1205      H1236   1.043       .  S
N1206      C1213   1.372       .  A
N1206      C1214   1.351       .  A
C1207      C1215   1.390       .  A
C1207      C1223   1.421       .  A
C1208      C1224   1.433       .  A
C1208      C1216   1.386       .  A
C1209      C1217   1.382       .  A
C1209      C1226   1.433       .  A
C1210      C3337   1.423       .  A
C1210      C1218   1.391       .  A
C1211      C3335   1.437       .  A
C1211      C1219   1.393       .  A
C1212      C1226   1.443       .  A
C1212      C1220   1.383       .  A
C1213      C1221   1.387       .  A
C1213      C1224   1.446       .  A
C1214      C1222   1.391       .  A
C1214      C1225   1.437       .  A
C1215      C1216   1.384       .  A
C1215      H1227   1.082       .  S
C1216      H1228   1.082       .  S
C1217      C1218   1.378       .  A
C1217      H1229   1.082       .  S
C1218      H1230   1.080       .  S
C1219      C1220   1.385       .  A
C1219      H1231   1.082       .  S
C1220      H1232   1.081       .  S
C1221      C1222   1.387       .  A
C1221      H1233   1.078       .  S
C1222      H1234   1.083       .  S
C1223      C1805   1.491       .  S
C1223      C3323   1.422       .  A
C1224      C1293   1.579       .  S
C1225      C1864   1.516       .  S
C1225      C3322   1.440       .  A
C1226      C1291   1.584       .  S
N1237      C1242   1.373       .  A
N1237      C1241   1.353       .  A
N1237      H1269   1.043   1_545  S
N1238      C1245   1.355       .  A
N1238      C1246   1.369   1_545  A
N1239      C1244   1.358       .  A
N1239      C1243   1.382       .  A
N1239      H1270   1.042   1_565  S
N1240      C1247   1.372       .  A
N1240      C1248   1.351       .  A
C1241      C1249   1.390       .  A
C1241      C1257   1.430       .  A
C1242      C1258   1.441       .  A
C1242      C1250   1.385       .  A
C1243      C1251   1.387       .  A
C1243      C1260   1.456       .  A
C1244      C1259   1.438       .  A
C1244      C1252   1.387       .  A
C1245      C1257   1.431       .  A
C1245      C1253   1.385   1_545  A
C1246      C1260   1.448       .  A
C1246      C1254   1.388       .  A
C1247      C1255   1.383       .  A
C1247      C1258   1.440   1_565  A
C1248      C1256   1.391       .  A
C1248      C1259   1.432       .  A
C1249      C1250   1.384       .  A
C1249      H1261   1.082       .  S
C1250      H1262   1.082       .  S
C1251      C1252   1.380       .  A
C1251      H1263   1.082       .  S
C1252      H1264   1.081       .  S
C1253      C1254   1.381       .  A
C1253      H1265   1.083       .  S
C1254      H1266   1.081       .  S
C1255      C1256   1.380       .  A
C1255      H1267   1.081       .  S
C1256      H1268   1.082       .  S
C1257      C1791   1.503       .  S
C1259      C1850   1.500       .  S
N1271      C1276   1.358       .  A
N1271      C1275   1.379       .  A
N1271      H1303   1.043       .  S
N1272      C1279   1.361       .  A
N1272      C1280   1.352       .  A
N1273      C1278   1.367       .  A
N1273      C1277   1.362       .  A
N1273      H1304   1.044       .  S
N1274      C1281   1.364       .  A
N1274      C1282   1.379       .  A
C1275      C1283   1.385       .  A
C1275      C1291   1.450       .  A
C1276      C1292   1.440       .  A
C1276      C1284   1.391       .  A
C1277      C1285   1.381       .  A
C1277      C1294   1.423       .  A
C1278      C1293   1.420       .  A
C1278      C1286   1.391       .  A
C1279      C1291   1.451       .  A
C1279      C1287   1.393       .  A
C1280      C1294   1.430       .  A
C1280      C1288   1.384       .  A
C1281      C1289   1.390       .  A
C1281      C1292   1.442       .  A
C1282      C1290   1.383       .  A
C1282      C1293   1.448       .  A
C1283      C1284   1.385       .  A
C1283      H1295   1.082       .  S
C1284      H1296   1.082       .  S
C1285      C1286   1.375       .  A
C1285      H1297   1.083       .  S
C1286      H1298   1.083       .  S
C1287      C1288   1.395       .  A
C1287      H1299   1.081       .  S
C1288      H1300   1.082       .  S
C1289      C1290   1.374       .  A
C1289      H1301   1.082       .  S
C1290      H1302   1.080       .  S
C1292      C1777   1.515       .  S
C1294      C1836   1.529       .  S
N1305      C1310   1.358       .  A
N1305      C1309   1.374   1_655  A
N1305      H1337   1.042       .  S
N1306      C1313   1.373   1_655  A
N1306      C1314   1.361       .  A
N1307      C1312   1.373       .  A
N1307      C1311   1.356       .  A
N1307      H1338   1.043       .  S
N1308      C1315   1.358       .  A
N1308      C1316   1.374       .  A
C1309      C1317   1.390       .  A
C1309      C1325   1.452       .  A
C1310      C1326   1.432       .  A
C1310      C1318   1.384   1_655  A
C1311      C1319   1.384       .  A
C1311      C1328   1.425       .  A
C1312      C1327   1.450   1_554  A
C1312      C1320   1.390       .  A
C1313      C1325   1.459   1_554  A
C1313      C1321   1.389       .  A
C1314      C1322   1.384   1_655  A
C1315      C1323   1.385       .  A
C1316      C1324   1.389       .  A
C1316      C1327   1.458       .  A
C1317      C1318   1.387       .  A
C1317      H1329   1.081       .  S
C1318      H1330   1.082       .  S
C1319      C1320   1.383       .  A
C1319      H1331   1.082       .  S
C1320      H1332   1.082   1_455  S
C1321      C1322   1.377       .  A
C1321      H1333   1.079       .  S
C1322      H1334   1.081       .  S
C1323      C1324   1.385       .  A
C1323      H1335   1.082       .  S
C1324      H1336   1.078       .  S
C1325      C1361   1.606       .  S
C1326      C1763   1.525       .  S
C1327      C1359   1.606       .  S
C1328      C2060   1.505       .  S
N1339      C1344   1.359       .  A
N1339      C1343   1.381       .  A
N1339      H1371   1.043   1_455  S
N1340      C1347   1.366       .  A
N1340      C1348   1.351       .  A
N1341      C1346   1.368   1_455  A
N1341      C1345   1.352       .  A
N1341      H1372   1.044       .  S
N1342      C1349   1.355       .  A
N1342      C1350   1.378       .  A
C1343      C1351   1.383       .  A
C1343      C1359   1.446       .  A
C1344      C1360   1.443       .  A
C1344      C1352   1.392       .  A
C1345      C1353   1.388   1_455  A
C1345      C1362   1.419       .  A
C1346      C1361   1.433   1_654  A
C1346      C1354   1.386       .  A
C1347      C1359   1.440   1_554  A
C1347      C1355   1.388       .  A
C1348      C1362   1.422       .  A
C1348      C1356   1.386       .  A
C1349      C1357   1.391   1_455  A
C1349      C1360   1.441       .  A
C1350      C1358   1.384   1_455  A
C1350      C1361   1.450       .  A
C1351      C1352   1.380       .  A
C1351      H1363   1.082       .  S
C1352      H1364   1.080       .  S
C1353      C1354   1.381       .  A
C1353      H1365   1.082       .  S
C1354      H1366   1.082       .  S
C1355      C1356   1.380       .  A
C1355      H1367   1.081       .  S
C1356      H1368   1.082       .  S
C1357      C1358   1.381       .  A
C1357      H1369   1.082       .  S
C1358      H1370   1.080       .  S
C1360      C1749   1.504       .  S
C1362      C2032   1.492       .  S
N1373      C1378   1.374       .  A
N1373      C1377   1.353       .  A
N1373      H1405   1.044       .  S
N1374      C1381   1.360       .  A
N1374      C1382   1.379   1_545  A
N1375      C1380   1.354       .  A
N1375      C1379   1.371   1_544  A
N1375      H1406   1.044   1_554  S
N1376      C1383   1.379       .  A
N1376      C1384   1.360       .  A
C1377      C1385   1.390       .  A
C1378      C1394   1.446       .  A
C1378      C1386   1.387       .  A
C1379      C1387   1.385   1_556  A
C1379      C1396   1.438       .  A
C1380      C1395   1.431       .  A
C1380      C1388   1.391   1_545  A
C1381      C1393   1.451       .  A
C1381      C1389   1.392   1_545  A
C1382      C1396   1.458       .  A
C1382      C1390   1.385       .  A
C1383      C1391   1.384       .  A
C1383      C1394   1.454   1_554  A
C1384      C1392   1.392       .  A
C1385      C1386   1.390       .  A
C1385      H1397   1.082       .  S
C1386      H1398   1.082       .  S
C1387      C1388   1.384       .  A
C1387      H1399   1.082       .  S
C1388      H1400   1.082       .  S
C1389      C1390   1.393       .  A
C1389      H1401   1.082       .  S
C1390      H1402   1.081       .  S
C1391      C1392   1.387       .  A
C1391      H1403   1.082       .  S
C1392      H1404   1.082       .  S
C1393      C1735   1.529       .  S
C1394      C1430   1.604       .  S
C1395      C1976   1.498       .  S
C1396      C1428   1.601       .  S
N1407      C1412   1.379       .  A
N1407      C1411   1.359       .  A
N1407      H1439   1.042   1_554  S
N1408      C1415   1.359       .  A
N1408      C1416   1.375       .  A
N1409      C1414   1.360       .  A
N1409      C1413   1.381       .  A
N1409      H1440   1.042       .  S
N1410      C1417   1.375       .  A
N1410      C1418   1.358       .  A
C1411      C1419   1.391       .  A
C1411      C1427   1.442       .  A
C1412      C1428   1.454   1_554  A
C1412      C1420   1.385       .  A
C1413      C1421   1.387       .  A
C1413      C1430   1.457       .  A
C1414      C1429   1.443       .  A
C1414      C1422   1.390       .  A
C1415      C1427   1.444       .  A
C1415      C1423   1.393       .  A
C1416      C1430   1.444   1_554  A
C1416      C1424   1.382       .  A
C1417      C1425   1.383       .  A
C1417      C1428   1.445       .  A
C1418      C1426   1.392       .  A
C1418      C1429   1.443       .  A
C1419      C1420   1.382       .  A
C1419      H1431   1.079       .  S
C1420      H1432   1.081       .  S
C1421      C1422   1.389       .  A
C1421      H1433   1.081       .  S
C1422      H1434   1.082       .  S
C1423      C1424   1.381       .  A
C1423      H1435   1.081       .  S
C1424      H1436   1.082       .  S
C1425      C1426   1.387       .  A
C1425      H1437   1.082       .  S
C1426      H1438   1.082       .  S
C1427      C1945   1.519       .  S
C1429      C1721   1.517       .  S
O1441      C1451   1.271       .  A
O1441      V1449   1.919       .  S
O1442      C3564   1.267       .  A
O1442      V1449   1.908       .  S
O1443      C1453   1.256       .  A
O1443      V1449   1.880       .  S
O1444      C1454   1.259       .  A
O1445      C3566   1.258       .  A
O1446      C3565   1.265       .  A
O1446      V1450   1.889       .  S
O1447      C1452   1.266       .  A
O1447      V1450   1.909       .  S
O1448      C3563   1.265       .  A
O1448      V1450   1.898       .  S
V1449      V3562   2.086       .  T
V1450      V3561   2.086       .  T
C1451      O3560   1.267       .  A
C1451      C1766   1.528       .  S
C1452      O3554   1.268       .  A
C1452      C1707   1.502       .  S
C1453      O3558   1.264       .  A
C1453      C3805   1.459   1_655  S
C1454      O3557   1.260       .  A
C1454      C3791   1.455       .  S
O1455      C1465   1.266       .  A
O1455      V1463   1.902       .  S
O1456      C3578   1.266       .  A
O1456      V1463   1.904       .  S
O1457      C3579   1.262       .  A
O1457      V1463   1.885       .  S
O1458      C3580   1.260       .  A
O1458      V1463   1.895       .  S
O1459      C1468   1.262       .  A
O1459      V1464   1.876       .  S
O1460      C1467   1.258       .  A
O1460      V1464   1.883       .  S
O1461      C1466   1.264       .  A
O1461      V1464   1.894       .  S
O1462      C3577   1.266       .  A
O1462      V1464   1.903       .  S
V1463      V3576   2.087       .  T
V1464      V3575   2.087       .  T
C1465      O3574   1.267       .  A
C1465      C1752   1.515       .  S
C1466      O3568   1.267       .  A
C1466      C1665   1.494       .  S
C1467      O3569   1.261       .  A
C1467      C1682   1.456       .  S
C1468      O3570   1.259       .  A
C1468      C1696   1.454       .  S
O1469      C1479   1.266       .  A
O1469      V1477   1.908       .  S
O1470      C1480   1.266       .  A
O1470      V1477   1.906       .  S
O1471      C1481   1.259       .  A
O1471      V1477   1.880       .  S
O1472      C1482   1.262       .  A
O1473      C1482   1.258       .  A
O1474      C1481   1.259       .  A
O1474      V1478   1.877       .  S
O1475      C1480   1.269       .  A
O1475      V1478   1.915       .  S
O1476      C1479   1.271       .  A
O1476      V1478   1.922       .  S
V1477      V1478   2.086       .  T
C1479      C1738   1.512       .  S
C1480      C1651   1.517       .  S
C1481      C1623   1.450   1_545  S
C1482      C1637   1.458       .  S
O1483      C1493   1.264       .  A
O1483      V1491   1.900       .  S
O1484      C1494   1.263       .  A
O1484      V1491   1.896       .  S
O1485      C1495   1.262       .  A
O1485      V1491   1.885       .  S
O1486      C1496   1.261       .  A
O1486      V1491   1.887       .  S
O1487      C1496   1.258       .  A
O1487      V1492   1.880       .  S
O1488      C1495   1.260       .  A
O1488      V1492   1.895       .  S
O1489      C1494   1.276       .  A
O1489      V1492   1.943       .  S
O1490      C1493   1.276       .  A
O1490      V1492   1.937       .  S
V1491      V1492   2.082       .  T
C1493      C1724   1.529       .  S
C1494      C1609   1.534       .  S
C1495      C1640   1.464       .  S
C1496      C1626   1.456       .  S
O1497      V1505   1.899       .  S
O1498      V1505   1.903       .  S
O1499      V1505   1.909       .  S
O1500      V3617   1.902       .  S
O1501      C1510   1.262       .  A
O1501      V3618   1.880       .  S
O1502      C1509   1.261       .  A
O1502      V1506   1.905       .  S
O1503      C1508   1.272       .  A
O1503      V1506   1.925       .  S
O1504      C1507   1.270       .  A
O1504      V1506   1.922       .  S
V1505      O3612   1.914   1_545  S
V1506      O3613   1.892       .  S
C1507      C1822   1.505       .  S
C1508      C1710   1.514       .  S
C1509      C1581   1.464       .  S
C1510      C1598   1.459   1_655  S
O1511      C1521   1.264       .  A
O1511      V1519   1.895       .  S
O1512      C1522   1.264       .  A
O1512      V1519   1.897       .  S
O1513      C1523   1.260       .  A
O1513      V3631   1.874       .  S
O1514      C1524   1.260       .  A
O1514      V1519   1.902       .  S
O1515      C1524   1.261       .  A
O1515      V1520   1.870       .  S
O1516      C1523   1.261       .  A
O1516      V3632   1.899       .  S
O1517      C1522   1.265       .  A
O1517      V1520   1.897       .  S
O1518      C1521   1.265       .  A
O1518      V1520   1.899       .  S
V1519      O3625   1.883       .  S
V1519      V1520   2.086       .  T
V1520      O3628   1.894       .  S
C1521      C1808   1.503       .  S
C1522      C1668   1.501       .  S
C1523      C1570   1.459       .  S
C1524      C1553   1.461       .  S
O1525      C1535   1.267       .  A
O1525      V1533   1.905       .  S
O1526      V1533   1.900       .  S
O1527      V1533   1.901       .  S
O1528      V1533   1.881       .  S
O1529      C1538   1.258       .  A
O1529      V1534   1.891   1_565  S
O1530      C1537   1.263       .  A
O1530      V1534   1.872       .  S
O1531      C1536   1.267       .  A
O1531      V1534   1.910       .  S
O1532      V1534   1.912       .  S
C1536      C1654   1.499       .  S
O1539      C1549   1.273       .  A
O1539      V1547   1.933       .  S
O1540      C1550   1.275       .  A
O1540      V1547   1.929       .  S
O1541      C1551   1.258       .  A
O1541      V1547   1.892       .  S
O1542      C1552   1.258       .  A
O1542      V1547   1.877       .  S
O1543      C1552   1.263       .  A
O1543      V1548   1.898       .  S
O1544      C1551   1.266       .  A
O1544      V1548   1.892       .  S
O1545      C1550   1.264       .  A
O1545      V1548   1.906       .  S
O1546      C1549   1.264       .  A
O1546      V1548   1.900       .  S
V1547      V1548   2.087       .  T
C1549      C1780   1.511       .  S
C1550      C1612   1.516       .  S
C1551      C1556   1.465       .  S
C1552      C1567   1.461       .  S
C1553      C1554   1.406       .  A
C1553      C1558   1.409       .  A
C1554      C1555   1.406       .  A
C1554      C1559   1.450       .  S
C1555      C1556   1.409       .  A
C1555      C1562   1.449       .  S
C1556      C1557   1.410       .  A
C1557      C1558   1.409       .  A
C1557      C1560   1.451       .  S
C1558      C1561   1.450       .  S
C1559      N1566   1.157       .  T
C1560      N1565   1.157       .  T
C1561      N1563   1.157       .  T
C1562      N1564   1.156       .  T
C1567      C1568   1.412       .  A
C1567      C1572   1.408       .  A
C1568      C1569   1.398       .  A
C1568      C1573   1.451       .  S
C1569      C1570   1.404       .  A
C1569      C1576   1.453       .  S
C1570      C1571   1.407       .  A
C1571      C1572   1.408       .  A
C1571      C1574   1.446       .  S
C1572      C1575   1.451       .  S
C1573      N1580   1.157       .  T
C1574      N1579   1.155       .  T
C1575      N1577   1.157       .  T
C1576      N1578   1.157       .  T
C1581      C1586   1.409       .  A
C1582      C1583   1.412       .  A
C1582      C1587   1.440       .  S
C1583      C1590   1.449       .  S
C1584      C1585   1.406       .  A
C1585      C1586   1.407       .  A
C1585      C1588   1.449       .  S
C1586      C1589   1.447       .  S
C1587      N1594   1.154       .  T
C1588      N1593   1.157       .  T
C1589      N1591   1.157       .  T
C1590      N1592   1.157       .  T
C1595      C1596   1.407       .  A
C1596      C1597   1.404       .  A
C1596      C1601   1.451       .  S
C1597      C1598   1.407       .  A
C1597      C1604   1.449       .  S
C1599      C1600   1.406       .  A
C1599      C1602   1.447       .  S
C1600      C1603   1.450       .  S
C1601      N1608   1.157       .  T
C1602      N1607   1.156       .  T
C1603      N1605   1.157       .  T
C1604      N1606   1.156       .  T
C1609      C1610   1.425       .  A
C1609      C1614   1.433       .  A
C1610      C1611   1.428       .  A
C1610      C1615   1.450       .  S
C1611      C1612   1.420       .  A
C1611      C1618   1.451       .  S
C1612      C1613   1.412       .  A
C1613      C1614   1.420       .  A
C1613      C1616   1.454       .  S
C1614      C1617   1.452       .  S
C1615      N1622   1.158       .  T
C1616      N1621   1.157       .  T
C1617      N1619   1.158       .  T
C1618      N1620   1.157       .  T
C1623      C1624   1.408       .  A
C1623      C1628   1.406       .  A
C1624      C1625   1.400       .  A
C1624      C1629   1.453       .  S
C1625      C1626   1.410       .  A
C1625      C1632   1.452       .  S
C1626      C1627   1.409       .  A
C1627      C1628   1.400       .  A
C1627      C1630   1.448       .  S
C1628      C1631   1.453       .  S
C1629      N1636   1.157       .  T
C1630      N1635   1.156       .  T
C1631      N1633   1.157       .  T
C1632      N1634   1.157       .  T
C1637      C1638   1.405       .  A
C1637      C1642   1.409       .  A
C1638      C1639   1.405       .  A
C1638      C1643   1.452       .  S
C1639      C1640   1.411       .  A
C1639      C1646   1.448       .  S
C1640      C1641   1.407       .  A
C1641      C1642   1.403       .  A
C1641      C1644   1.451       .  S
C1642      C1645   1.450       .  S
C1643      N1650   1.157       .  T
C1644      N1649   1.157       .  T
C1645      N1647   1.157       .  T
C1646      N1648   1.156       .  T
C1651      C1656   1.423       .  A
C1652      C1653   1.414       .  A
C1652      C1657   1.452       .  S
C1653      C1660   1.450       .  S
C1654      C1655   1.413       .  A
C1655      C1656   1.418       .  A
C1655      C1658   1.449       .  S
C1656      C1659   1.451       .  S
C1657      N1664   1.158       .  T
C1658      N1663   1.156       .  T
C1659      N1661   1.158       .  T
C1660      N1662   1.157       .  T
C1665      C1666   1.413       .  A
C1665      C3782   1.414       .  A
C1666      C1667   1.409       .  A
C1666      C1671   1.449       .  S
C1667      C1668   1.418       .  A
C1667      C1674   1.450       .  S
C1668      C3781   1.420       .  A
C1669      C3780   1.415       .  A
C1669      C1670   1.413       .  A
C1669      C1672   1.452       .  S
C1670      C3777   1.417       .  A
C1670      C1673   1.452       .  S
C1671      N1678   1.156       .  T
C1672      N1677   1.157       .  T
C1673      N1675   1.157       .  T
C1674      N1676   1.156       .  T
C1679      C3566   1.463   1_565  S
C1679      C3792   1.409       .  A
C1679      C1684   1.413       .  A
C1680      C3791   1.407       .  A
C1680      C1681   1.397       .  A
C1680      C1685   1.454       .  S
C1681      C3794   1.409       .  A
C1681      C1688   1.451       .  S
C1682      C3793   1.408       .  A
C1682      C1683   1.409       .  A
C1683      C1684   1.406       .  A
C1683      C1686   1.451       .  S
C1684      C1687   1.450       .  S
C1685      N1692   1.157       .  T
C1686      N1691   1.157       .  T
C1687      N1689   1.157       .  T
C1688      N1690   1.157       .  T
C1693      C3565   1.456       .  S
C1693      C1694   1.405       .  A
C1693      C3810   1.408       .  A
C1694      C1695   1.406       .  A
C1694      C1699   1.450       .  S
C1695      C1696   1.409       .  A
C1695      C1702   1.449       .  S
C1696      C3809   1.405       .  A
C1697      C3808   1.406       .  A
C1697      C1698   1.399       .  A
C1697      C1700   1.452       .  S
C1698      C3805   1.407       .  A
C1698      C1701   1.449   1_455  S
C1699      N1706   1.157       .  T
C1700      N1705   1.157       .  T
C1701      N1703   1.156       .  T
C1702      N1704   1.157       .  T
C1707      C1708   1.415       .  A
C1707      C2768   1.410       .  A
C1708      C1709   1.421       .  A
C1708      C1713   1.449       .  S
C1709      C1710   1.418       .  A
C1709      C1716   1.445       .  S
C1710      C2767   1.422       .  A
C1711      C2766   1.419       .  A
C1711      C1712   1.426       .  A
C1711      C1714   1.449       .  S
C1712      C2763   1.418       .  A
C1712      C1715   1.450       .  S
C1713      N1720   1.157       .  T
C1714      N1719   1.158       .  T
C1715      N1717   1.158       .  T
C1716      N1718   1.156       .  T
C1721      C1722   1.413       .  A
C1721      C1726   1.409       .  A
C1722      C1723   1.423       .  A
C1722      C1727   1.450       .  S
C1723      C1724   1.424       .  A
C1723      C1730   1.448       .  S
C1724      C1725   1.432       .  A
C1725      C1726   1.421       .  A
C1725      C1728   1.452       .  S
C1726      C1729   1.452       .  S
C1727      N1734   1.157       .  T
C1728      N1733   1.158       .  T
C1729      N1731   1.157       .  T
C1730      N1732   1.157       .  T
C1735      C1740   1.419       .  A
C1736      C1737   1.414       .  A
C1736      C1741   1.451       .  S
C1737      C1744   1.449       .  S
C1738      C1739   1.418       .  A
C1739      C1740   1.421       .  A
C1739      C1742   1.451       .  S
C1740      C1743   1.450       .  S
C1741      N1748   1.157       .  T
C1742      N1747   1.157       .  T
C1743      N1745   1.157       .  T
C1744      N1746   1.157       .  T
C1749      C1750   1.408       .  A
C1749      C3866   1.409   1_455  A
C1750      C1751   1.413       .  A
C1750      C1755   1.451       .  S
C1751      C1752   1.427       .  A
C1751      C1758   1.451       .  S
C1752      C3865   1.426   1_455  A
C1753      C3864   1.421       .  A
C1753      C1754   1.415       .  A
C1753      C1756   1.452       .  S
C1754      C3861   1.411       .  A
C1754      C1757   1.451       .  S
C1755      N1762   1.156       .  T
C1756      N1761   1.158       .  T
C1757      N1759   1.157       .  T
C1758      N1760   1.158       .  T
C1763      C2820   1.415       .  A
C1763      C1768   1.417       .  A
C1764      C2819   1.410       .  A
C1764      C1765   1.420       .  A
C1764      C1769   1.451       .  S
C1765      C2822   1.427       .  A
C1765      C1772   1.450       .  S
C1766      C2821   1.429       .  A
C1766      C1767   1.424       .  A
C1767      C1768   1.422       .  A
C1767      C1770   1.451       .  S
C1768      C1771   1.451   1_655  S
C1769      N1776   1.157       .  T
C1770      N1775   1.158   1_655  T
C1771      N1773   1.157       .  T
C1772      N1774   1.158       .  T
C1777      C1778   1.410       .  A
C1777      C1782   1.416       .  A
C1778      C1779   1.415       .  A
C1778      C1783   1.451       .  S
C1779      C1780   1.421       .  A
C1779      C1786   1.448       .  S
C1780      C1781   1.415       .  A
C1781      C1782   1.423       .  A
C1781      C1784   1.446       .  S
C1782      C1785   1.449       .  S
C1783      N1790   1.157       .  T
C1784      N1789   1.157       .  T
C1785      N1787   1.157       .  T
C1786      N1788   1.155       .  T
C1791      C1796   1.411       .  A
C1792      C1793   1.420       .  A
C1792      C1797   1.452       .  S
C1793      C1800   1.450       .  S
C1794      C1795   1.422       .  A
C1795      C1796   1.416       .  A
C1795      C1798   1.450   1_545  S
C1796      C1799   1.452   1_545  S
C1797      N1804   1.157       .  T
C1798      N1803   1.157       .  T
C1799      N1801   1.157       .  T
C1800      N1802   1.157       .  T
C1805      C3918   1.408       .  A
C1805      C1810   1.408       .  A
C1806      C3917   1.408       .  A
C1806      C1807   1.417       .  A
C1806      C1811   1.452       .  S
C1807      C3920   1.427       .  A
C1807      C1814   1.449       .  S
C1808      C3919   1.425       .  A
C1808      C1809   1.425       .  A
C1809      C1810   1.411       .  A
C1809      C1812   1.452       .  S
C1810      C1813   1.452       .  S
C1811      N1818   1.157       .  T
C1812      N1817   1.158       .  T
C1813      N1815   1.157       .  T
C1814      N1816   1.157       .  T
C1819      C2876   1.410       .  A
C1819      C1824   1.415       .  A
C1820      C2875   1.413       .  A
C1820      C1821   1.422       .  A
C1820      C1825   1.450       .  S
C1821      C2878   1.421       .  A
C1821      C1828   1.447       .  S
C1822      C2877   1.423       .  A
C1822      C1823   1.416       .  A
C1823      C1824   1.417       .  A
C1823      C1826   1.449       .  S
C1824      C1827   1.451       .  S
C1825      N1832   1.157       .  T
C1826      N1831   1.157       .  T
C1827      N1829   1.157       .  T
C1828      N1830   1.157       .  T
C1833      C1834   1.428       .  A
C1833      C1838   1.428       .  A
C1834      C1835   1.427       .  A
C1834      C1839   1.451       .  S
C1835      C1836   1.418       .  A
C1835      C1842   1.452       .  S
C1836      C1837   1.420       .  A
C1837      C1838   1.424       .  A
C1837      C1840   1.452       .  S
C1838      C1841   1.452       .  S
C1839      N1846   1.158       .  T
C1840      N1845   1.158       .  T
C1841      N1843   1.158       .  T
C1842      N1844   1.158       .  T
C1847      C1852   1.429   1_545  A
C1848      C1849   1.413       .  A
C1848      C1853   1.452       .  S
C1849      C1856   1.454       .  S
C1850      C1851   1.406       .  A
C1851      C1852   1.415       .  A
C1851      C1854   1.452       .  S
C1852      C1855   1.447       .  S
C1853      N1860   1.157       .  T
C1854      N1859   1.157       .  T
C1855      N1857   1.156       .  T
C1856      N1858   1.157       .  T
C1861      C1862   1.408       .  A
C1861      C3978   1.413       .  A
C1862      C1863   1.407       .  A
C1862      C1867   1.449       .  S
C1863      C1864   1.420       .  A
C1863      C1870   1.451       .  S
C1864      C3977   1.422       .  A
C1865      C3976   1.411       .  A
C1865      C1866   1.411       .  A
C1865      C1868   1.453       .  S
C1866      C3973   1.419       .  A
C1866      C1869   1.446       .  S
C1867      N1874   1.156       .  T
C1868      N1873   1.157       .  T
C1869      N1871   1.155       .  T
C1870      N1872   1.157       .  T
C1875      C1876   1.406       .  A
C1875      C1880   1.406       .  A
C1876      C1877   1.404       .  A
C1876      C1881   1.443       .  S
C1877      C1878   1.404       .  A
C1877      C1884   1.448       .  S
C1878      C1879   1.408       .  A
C1879      C1880   1.410       .  A
C1879      C1882   1.448       .  S
C1880      C1883   1.447       .  S
C1881      N1888   1.156       .  T
C1882      N1887   1.157       .  T
C1883      N1885   1.157       .  T
C1884      N1886   1.156       .  T
C1889      C1890   1.409       .  A
C1889      C1894   1.409       .  A
C1890      C1891   1.403       .  A
C1890      C1895   1.451       .  S
C1891      C1892   1.405       .  A
C1891      C1898   1.449       .  S
C1892      C1893   1.407       .  A
C1893      C1894   1.400       .  A
C1893      C1896   1.450       .  S
C1894      C1897   1.454       .  S
C1895      N1902   1.157       .  T
C1896      N1901   1.157       .  T
C1897      N1899   1.158       .  T
C1898      N1900   1.157       .  T
C1903      C1904   1.425   1_545  A
C1903      C2964   1.427       .  A
C1904      C1905   1.419       .  A
C1904      C1909   1.451       .  S
C1905      C1906   1.413   1_565  A
C1905      C1912   1.452       .  S
C1906      C2963   1.409       .  A
C1907      C2962   1.411       .  A
C1907      C1908   1.419       .  A
C1907      C1910   1.452       .  S
C1908      C2959   1.429       .  A
C1908      C1911   1.453       .  S
C1909      N1916   1.158       .  T
C1910      N1915   1.157       .  T
C1911      N1913   1.158       .  T
C1912      N1914   1.157       .  T
C1917      C1922   1.408   1_565  A
C1918      C1919   1.393       .  A
C1918      C1923   1.454       .  S
C1919      C1926   1.453       .  S
C1920      C1921   1.408       .  A
C1921      C1922   1.400       .  A
C1921      C1924   1.452       .  S
C1922      C1925   1.452       .  S
C1923      N1930   1.157       .  T
C1924      N1929   1.157       .  T
C1925      N1927   1.157       .  T
C1926      N1928   1.157       .  T
C1931      C1932   1.409       .  A
C1932      C1933   1.404       .  A
C1932      C1937   1.444       .  S
C1933      C1934   1.403       .  A
C1933      C1940   1.451       .  S
C1935      C1936   1.398   1_455  A
C1935      C1938   1.452       .  S
C1936      C1939   1.448       .  S
C1937      N1944   1.155       .  T
C1938      N1943   1.156       .  T
C1939      N1941   1.155       .  T
C1940      N1942   1.157       .  T
C1945      C1946   1.417       .  A
C1945      C1950   1.415       .  A
C1946      C1947   1.419       .  A
C1946      C1951   1.451       .  S
C1947      C1948   1.416       .  A
C1947      C1954   1.445       .  S
C1948      C1949   1.422       .  A
C1949      C1950   1.420       .  A
C1949      C1952   1.449       .  S
C1950      C1953   1.451       .  S
C1951      N1958   1.157       .  T
C1952      N1957   1.157       .  T
C1953      N1955   1.157       .  T
C1954      N1956   1.155       .  T
C1959      C1960   1.418       .  A
C1959      C1964   1.424       .  A
C1960      C1961   1.426       .  A
C1960      C1965   1.447       .  S
C1961      C1962   1.420       .  A
C1961      C1968   1.450       .  S
C1962      C1963   1.421       .  A
C1963      C1964   1.424       .  A
C1963      C1966   1.452       .  S
C1964      C1967   1.450       .  S
C1965      N1972   1.157       .  T
C1966      N1971   1.158       .  T
C1967      N1969   1.157       .  T
C1968      N1970   1.158       .  T
C1973      C1978   1.420       .  A
C1974      C1975   1.420       .  A
C1974      C1979   1.451       .  S
C1975      C1982   1.451       .  S
C1976      C1977   1.412       .  A
C1977      C1978   1.415       .  A
C1977      C1980   1.452       .  S
C1978      C1981   1.451       .  S
C1979      N1986   1.158       .  T
C1980      N1985   1.157       .  T
C1981      N1983   1.157       .  T
C1982      N1984   1.157       .  T
C1987      C1988   1.400       .  A
C1987      C1992   1.401       .  A
C1988      C1989   1.409       .  A
C1988      C1993   1.448       .  S
C1989      C1990   1.417       .  A
C1989      C1996   1.447       .  S
C1990      C1991   1.413       .  A
C1991      C1992   1.411       .  A
C1991      C1994   1.445       .  S
C1992      C1995   1.445       .  S
C1993      N2000   1.157   1_565  T
C1994      N1999   1.156       .  T
C1995      N1997   1.156   1_565  T
C1996      N1998   1.156       .  T
C2001      C2002   1.404       .  A
C2001      C2006   1.407       .  A
C2002      C2003   1.402       .  A
C2002      C2007   1.455       .  S
C2003      C2004   1.412       .  A
C2003      C2010   1.445       .  S
C2004      C2005   1.410       .  A
C2005      C2006   1.406       .  A
C2005      C2008   1.449       .  S
C2006      C2009   1.450       .  S
C2007      N2014   1.157       .  T
C2008      N2013   1.156       .  T
C2009      N2011   1.157       .  T
C2010      N2012   1.155       .  T
C2015      C2020   1.414       .  A
C2016      C2017   1.413       .  A
C2016      C2021   1.452       .  S
C2017      C2024   1.451       .  S
C2018      C2019   1.424       .  A
C2019      C2020   1.420       .  A
C2019      C2022   1.451       .  S
C2020      C2023   1.452       .  S
C2021      N2028   1.158       .  T
C2022      N2027   1.158       .  T
C2023      N2025   1.157       .  T
C2024      N2026   1.157       .  T
C2029      C4142   1.423   1_455  A
C2029      C2034   1.422       .  A
C2030      C4141   1.424       .  A
C2030      C2031   1.411       .  A
C2030      C2035   1.450       .  S
C2031      C4144   1.409       .  A
C2031      C2038   1.453       .  S
C2032      C4143   1.409   1_455  A
C2032      C2033   1.409       .  A
C2033      C2034   1.410       .  A
C2033      C2036   1.453       .  S
C2034      C2037   1.453       .  S
C2035      N2042   1.157       .  T
C2036      N2041   1.157       .  T
C2037      N2039   1.158       .  T
C2038      N2040   1.157       .  T
C2043      C2044   1.412       .  A
C2043      C4160   1.413       .  A
C2044      C2045   1.409       .  A
C2044      C2049   1.450       .  S
C2045      C2046   1.413       .  A
C2045      C2052   1.450       .  S
C2046      C4159   1.415       .  A
C2047      C4158   1.409       .  A
C2047      C2048   1.411       .  A
C2047      C2050   1.452       .  S
C2048      C4155   1.419       .  A
C2048      C2051   1.448       .  S
C2049      N2056   1.157       .  T
C2050      N2055   1.157       .  T
C2051      N2053   1.156       .  T
C2052      N2054   1.157       .  T
C2057      C2058   1.415       .  A
C2057      C3118   1.422       .  A
C2058      C2059   1.420       .  A
C2058      C2063   1.445       .  S
C2059      C2060   1.414       .  A
C2059      C2066   1.451       .  S
C2060      C3117   1.408       .  A
C2061      C3116   1.414       .  A
C2061      C2062   1.419       .  A
C2061      C2064   1.451       .  S
C2062      C3113   1.423       .  A
C2062      C2065   1.450       .  S
C2063      N2070   1.156       .  T
C2064      N2069   1.157       .  T
C2065      N2067   1.157       .  T
C2066      N2068   1.157       .  T
C2071      C3181   1.472       .  S
C2071      C4184   1.405       .  A
C2071      C2076   1.402       .  A
C2072      C4183   1.401       .  A
C2072      C2073   1.406       .  A
C2072      C2077   1.446       .  S
C2073      C4186   1.412       .  A
C2073      C2080   1.446       .  S
C2074      C4185   1.410       .  A
C2074      C2075   1.412       .  A
C2075      C2076   1.407       .  A
C2075      C2078   1.447       .  S
C2076      C2079   1.446       .  S
C2077      N2084   1.156       .  T
C2078      N2083   1.156       .  T
C2079      N2081   1.156       .  T
C2080      N2082   1.157       .  T
C2085      C3182   1.468       .  S
C2085      C2086   1.405       .  A
C2085      C4202   1.399       .  A
C2086      C2087   1.408       .  A
C2086      C2091   1.448       .  S
C2087      C2088   1.413       .  A
C2087      C2094   1.450       .  S
C2088      C4201   1.414       .  A
C2089      C4200   1.413       .  A
C2089      C2090   1.407       .  A
C2089      C2092   1.444       .  S
C2090      C4197   1.398       .  A
C2090      C2093   1.443       .  S
C2091      N2098   1.157       .  T
C2092      N2097   1.156       .  T
C2093      N2095   1.157       .  T
C2094      N2096   1.157       .  T
C2099      C3156   1.426       .  A
C2099      C2104   1.422       .  A
C2100      C3155   1.426       .  A
C2100      C2101   1.415       .  A
C2100      C2105   1.450       .  S
C2101      C3158   1.406       .  A
C2101      C2108   1.444       .  S
C2102      C3157   1.412       .  A
C2102      C2103   1.410   1_545  A
C2103      C2104   1.415   1_565  A
C2103      C2106   1.445       .  S
C2104      C2107   1.452   1_545  S
C2105      N2112   1.157       .  T
C2106      N2111   1.156       .  T
C2107      N2109   1.158       .  T
C2108      N2110   1.155       .  T
O2113      C2123   1.267       .  A
O2113      V3177   1.911       .  S
O2114      V2121   1.902       .  S
O2115      C2125   1.261       .  A
O2115      V2121   1.898       .  S
O2116      C2126   1.266       .  A
O2116      V3177   1.899       .  S
O2117      V3178   1.897       .  S
O2118      V2122   1.872       .  S
O2119      C3180   1.261       .  A
O2119      V3178   1.900       .  S
O2120      V2122   1.931       .  S
V2121      O3169   1.902       .  S
V2121      O3172   1.886       .  S
V2122      O3173   1.905       .  S
V2122      O3175   1.931       .  S
C2123      C4169   1.511       .  S
C2124      O3175   1.273       .  A
C2124      C3158   1.508       .  S
O2127      C2137   1.269       .  A
O2127      V2135   1.913       .  S
O2128      V2135   1.915       .  S
O2129      V2135   1.876       .  S
O2130      V2135   1.887       .  S
O2131      C2140   1.258       .  A
O2131      V2136   1.873       .  S
O2132      C2139   1.258   1_655  A
O2132      V2136   1.878       .  S
O2133      C2138   1.267   1_655  A
O2133      V2136   1.901       .  S
O2134      V2136   1.911       .  S
C2137      C3085   1.517       .  S
C2138      C3099   1.509       .  S
C2139      C3144   1.497       .  S
C2140      C3130   1.480       .  S
O2141      C2151   1.268       .  A
O2141      V2149   1.909       .  S
O2142      C2152   1.266       .  A
O2142      V2149   1.903       .  S
O2143      C2153   1.257       .  A
O2143      V2149   1.893       .  S
O2144      C2154   1.264       .  A
O2144      V3205   1.896       .  S
O2145      C2154   1.255       .  A
O2145      V3206   1.882       .  S
O2146      C2153   1.263       .  A
O2146      V2150   1.876       .  S
O2147      C2152   1.263       .  A
O2147      V2150   1.889       .  S
O2148      C2151   1.263       .  A
O2148      V2150   1.890       .  S
V2149      O3200   1.874       .  S
V2149      V2150   2.084       .  T
V2150      O3201   1.902       .  S
C2151      C3029   1.501       .  S
C2152      C3071   1.506       .  S
C2153      C3043   1.454       .  S
C2154      C3057   1.467   1_565  S
O2155      C2165   1.273       .  A
O2155      V2163   1.930       .  S
O2156      C2166   1.274       .  A
O2156      V2163   1.930       .  S
O2157      C2167   1.256       .  A
O2157      V2163   1.870       .  S
O2158      C2168   1.254       .  A
O2158      V2163   1.873       .  S
O2159      C2168   1.266       .  A
O2159      V2164   1.899       .  S
O2160      C2167   1.266       .  A
O2160      V2164   1.908       .  S
O2161      C2166   1.262       .  A
O2161      V2164   1.892       .  S
O2162      C2165   1.261       .  A
O2162      V2164   1.887       .  S
V2163      V2164   2.088       .  T
C2165      C3004   1.504       .  S
C2166      C3015   1.507       .  S
C2167      C3060   1.464       .  S
C2168      C3046   1.456       .  S
O2169      C2179   1.276       .  A
O2169      V2177   1.937       .  S
O2170      C2180   1.276       .  A
O2170      V2177   1.943       .  S
O2171      C2181   1.259       .  A
O2172      C2182   1.258       .  A
O2172      V2177   1.896       .  S
O2173      C3238   1.264       .  A
O2173      V2178   1.892       .  S
O2174      C3237   1.261       .  A
O2175      C3236   1.269       .  A
O2175      V2178   1.914       .  S
O2176      C3235   1.269       .  A
O2176      V2178   1.914       .  S
V2177      V3234   2.085       .  T
V2178      V3233   2.085       .  T
C2179      O3232   1.262       .  A
C2179      C2959   1.518       .  S
C2180      O3231   1.262       .  A
C2180      C3155   1.523       .  S
C2181      O3230   1.261       .  A
C2181      C2987   1.452       .  S
C2182      O3229   1.264       .  A
C2182      C2976   1.461       .  S
O2183      C2193   1.258       .  A
O2183      V2191   1.881       .  S
O2184      C2194   1.258   1_655  A
O2184      V2191   1.875       .  S
O2185      C2195   1.260       .  A
O2186      C2196   1.266       .  A
O2186      V2191   1.893       .  S
O2187      C2196   1.255       .  A
O2187      V2192   1.884   1_655  S
O2188      C2195   1.265       .  A
O2189      C2194   1.270       .  A
O2189      V2192   1.918       .  S
O2190      C2193   1.266   1_455  A
O2190      V2192   1.901       .  S
V2191      V2192   2.087   1_655  T
C2193      C2917   1.467       .  S
C2194      C3102   1.510       .  S
C2195      C2945   1.471       .  S
C2196      C2931   1.456       .  S
O2197      C3263   1.268       .  A
O2197      V2205   1.909       .  S
O2198      C3264   1.267       .  A
O2198      V2205   1.910       .  S
O2199      C3265   1.257       .  A
O2199      V2205   1.887       .  S
O2200      C3266   1.262       .  A
O2200      V2205   1.876       .  S
O2201      C2210   1.261       .  A
O2201      V2206   1.901       .  S
O2202      C2209   1.263       .  A
O2202      V2206   1.893       .  S
O2203      C2208   1.267       .  A
O2203      V2206   1.905       .  S
O2204      C2207   1.267       .  A
O2204      V2206   1.910       .  S
V2205      V3262   2.086       .  T
V2206      V3261   2.086       .  T
C2207      O3253   1.264       .  A
C2207      C2903   1.497       .  S
C2208      O3254   1.263       .  A
C2208      C3074   1.510       .  S
C2209      O3255   1.257       .  A
C2209      C2990   1.459       .  S
C2210      O3256   1.260       .  A
C2210      C2973   1.459       .  S
O2211      C2221   1.265       .  A
O2211      V2219   1.899       .  S
O2212      C2222   1.264       .  A
O2212      V2219   1.901       .  S
O2213      C2223   1.265       .  A
O2213      V2219   1.894       .  S
O2214      C2224   1.264       .  A
O2214      V2219   1.907       .  S
O2215      C2224   1.258       .  A
O2215      V2220   1.875       .  S
O2216      C2223   1.252       .  A
O2216      V2220   1.873       .  S
O2217      C2222   1.273       .  A
O2217      V2220   1.923       .  S
O2218      C2221   1.273       .  A
O2218      V2220   1.928       .  S
V2219      V2220   2.086       .  T
C2221      C2889   1.518       .  S
C2222      C3018   1.514       .  S
C2223      C2934   1.452       .  S
C2224      C2948   1.464       .  S
N2225      C2230   1.374       .  A
N2225      C2229   1.362       .  A
N2225      H2257   1.044   1_545  S
N2226      C2233   1.353       .  A
N2226      C2234   1.368       .  A
N2227      C2232   1.356       .  A
N2227      C2231   1.379       .  A
N2227      H2258   1.041       .  S
N2228      C2235   1.377       .  A
N2228      C2236   1.362       .  A
C2229      C2237   1.389       .  A
C2230      C3302   1.442       .  A
C2230      C2238   1.386       .  A
C2231      C2239   1.384       .  A
C2231      C2248   1.451       .  A
C2232      C2247   1.437       .  A
C2232      C2240   1.390       .  A
C2233      C2245   1.433       .  A
C2233      C2241   1.391       .  A
C2234      C3304   1.438   1_455  A
C2234      C2242   1.384   1_455  A
C2235      C2243   1.384       .  A
C2235      C2246   1.450       .  A
C2236      C2244   1.389       .  A
C2237      C2238   1.381       .  A
C2237      H2249   1.082       .  S
C2238      H2250   1.082       .  S
C2239      C2240   1.380       .  A
C2239      H2251   1.081       .  S
C2240      H2252   1.079       .  S
C2241      C2242   1.385   1_455  A
C2241      H2253   1.082       .  S
C2242      H2254   1.082       .  S
C2243      C2244   1.370       .  A
C2243      H2255   1.080       .  S
C2244      H2256   1.082       .  S
C2245      C2875   1.514       .  S
C2246      C2316   1.607       .  S
C2246      C3286   1.444       .  A
C2247      C2962   1.518       .  S
C2248      C2314   1.591       .  S
C2248      C3290   1.440       .  A
N2259      C2264   1.374       .  A
N2259      C2263   1.353       .  A
N2259      H2291   1.045       .  S
N2260      C2267   1.353       .  A
N2260      C2268   1.367       .  A
N2261      C2266   1.357       .  A
N2261      C2265   1.370       .  A
N2261      H2292   1.045       .  S
N2262      C2269   1.367       .  A
N2262      C2270   1.350       .  A
C2263      C2271   1.389       .  A
C2263      C2279   1.431       .  A
C2264      C2280   1.447       .  A
C2264      C2272   1.387       .  A
C2265      C2273   1.383       .  A
C2265      C2282   1.437       .  A
C2266      C2274   1.394       .  A
C2267      C2275   1.388       .  A
C2268      C2282   1.442       .  A
C2268      C2276   1.387       .  A
C2269      C2277   1.386       .  A
C2269      C2280   1.436       .  A
C2270      C2278   1.389       .  A
C2270      C2281   1.429       .  A
C2271      C2272   1.391       .  A
C2271      H2283   1.082       .  S
C2272      H2284   1.081       .  S
C2273      C2274   1.389       .  A
C2273      H2285   1.082       .  S
C2274      H2286   1.082       .  S
C2275      C2276   1.389       .  A
C2275      H2287   1.082       .  S
C2276      H2288   1.081       .  S
C2277      C2278   1.384       .  A
C2277      H2289   1.079       .  S
C2278      H2290   1.082       .  S
C2279      C2861   1.495       .  S
C2280      C2349   1.582       .  S
C2281      C2920   1.497       .  S
C2282      C2347   1.579       .  S
N2293      C2298   1.378       .  A
N2293      C2297   1.354       .  A
N2293      H2325   1.042       .  S
N2294      C2301   1.357       .  A
N2294      C2302   1.371       .  A
N2295      C2300   1.358       .  A
N2295      C2299   1.379       .  A
N2295      H2326   1.042       .  S
N2296      C2303   1.372       .  A
N2296      C2304   1.354       .  A
C2297      C2305   1.390       .  A
C2297      C2313   1.436       .  A
C2298      C2314   1.450       .  A
C2298      C2306   1.386       .  A
C2299      C2307   1.384       .  A
C2299      C2316   1.448       .  A
C2300      C2315   1.438       .  A
C2300      C2308   1.390       .  A
C2301      C2313   1.437       .  A
C2301      C2309   1.390       .  A
C2302      C2316   1.441       .  A
C2302      C2310   1.384       .  A
C2303      C2311   1.383       .  A
C2303      C2314   1.441       .  A
C2304      C2312   1.391       .  A
C2304      C2315   1.434       .  A
C2305      C2306   1.388       .  A
C2305      H2317   1.082       .  S
C2306      H2318   1.081       .  S
C2307      C2308   1.374       .  A
C2307      H2319   1.082       .  S
C2308      H2320   1.080       .  S
C2309      C2310   1.376       .  A
C2309      H2321   1.082       .  S
C2310      H2322   1.081       .  S
C2311      C2312   1.377       .  A
C2311      H2323   1.082       .  S
C2312      H2324   1.082       .  S
C2313      C2847   1.505       .  S
C2315      C2906   1.503       .  S
N2327      C2332   1.356       .  A
N2327      C2331   1.380       .  A
N2327      H2359   1.043       .  S
N2328      C2335   1.359       .  A
N2328      C2336   1.347       .  A
N2329      C2334   1.367       .  A
N2329      C2333   1.365       .  A
N2329      H2360   1.044       .  S
N2330      C2337   1.361       .  A
N2330      C2338   1.379       .  A
C2331      C2339   1.383       .  A
C2331      C2347   1.449       .  A
C2332      C2348   1.437       .  A
C2332      C2340   1.392       .  A
C2333      C2341   1.381       .  A
C2333      C2350   1.424       .  A
C2334      C2349   1.427       .  A
C2334      C2342   1.393       .  A
C2335      C2347   1.442       .  A
C2335      C2343   1.390       .  A
C2336      C2350   1.427       .  A
C2336      C2344   1.386       .  A
C2337      C2345   1.391       .  A
C2337      C2348   1.443       .  A
C2338      C2346   1.383       .  A
C2338      C2349   1.446       .  A
C2339      C2340   1.381       .  A
C2339      H2351   1.082       .  S
C2340      H2352   1.081       .  S
C2341      C2342   1.373       .  A
C2341      H2353   1.083       .  S
C2342      H2354   1.083       .  S
C2343      C2344   1.392       .  A
C2343      H2355   1.078       .  S
C2344      H2356   1.082       .  S
C2345      C2346   1.379       .  A
C2345      H2357   1.082       .  S
C2346      H2358   1.080       .  S
C2348      C2833   1.506       .  S
C2350      C2892   1.516       .  S
N2361      C2366   1.359       .  A
N2361      C2365   1.374       .  A
N2361      H2393   1.043       .  S
N2362      C2369   1.372       .  A
N2362      C2370   1.359       .  A
N2363      C2368   1.378       .  A
N2363      C2367   1.360       .  A
N2363      H2394   1.041       .  S
N2364      C2371   1.356       .  A
N2364      C2372   1.364       .  A
C2365      C2373   1.384       .  A
C2365      C2381   1.439       .  A
C2366      C2382   1.434       .  A
C2366      C2374   1.391       .  A
C2367      C2375   1.392       .  A
C2367      C2384   1.441       .  A
C2368      C2383   1.445   1_554  A
C2368      C2376   1.384       .  A
C2369      C2381   1.449   1_554  A
C2369      C2377   1.388       .  A
C2370      C3440   1.435       .  A
C2370      C2378   1.387       .  A
C2371      C2379   1.385       .  A
C2371      C3438   1.424       .  A
C2372      C2380   1.389       .  A
C2372      C2383   1.438       .  A
C2373      C2374   1.376       .  A
C2373      H2385   1.082       .  S
C2374      H2386   1.082       .  S
C2375      C2376   1.379       .  A
C2375      H2387   1.081       .  S
C2376      H2388   1.082       .  S
C2377      C2378   1.382       .  A
C2377      H2389   1.081       .  S
C2378      H2390   1.082       .  S
C2379      C2380   1.379       .  A
C2379      H2391   1.082       .  S
C2380      H2392   1.082       .  S
C2381      C2417   1.598       .  S
C2382      C2819   1.508       .  S
C2382      C3427   1.431       .  A
C2383      C2415   1.595       .  S
C2384      C3116   1.515       .  S
C2384      C3426   1.441       .  A
N2395      C2400   1.354       .  A
N2395      C2399   1.371       .  A
N2395      H2427   1.044       .  S
N2396      C2403   1.373       .  A
N2396      C2404   1.355       .  A
N2397      C2402   1.376       .  A
N2397      C2401   1.358       .  A
N2397      H2428   1.043       .  S
N2398      C2405   1.357       .  A
N2398      C2406   1.370       .  A
C2399      C2407   1.386       .  A
C2399      C2415   1.438       .  A
C2400      C2416   1.423       .  A
C2400      C2408   1.388       .  A
C2401      C2409   1.390       .  A
C2401      C2418   1.435       .  A
C2402      C2417   1.440   1_554  A
C2402      C2410   1.384       .  A
C2403      C2415   1.448   1_554  A
C2403      C2411   1.387       .  A
C2404      C2418   1.434       .  A
C2404      C2412   1.388       .  A
C2405      C2413   1.385       .  A
C2405      C2416   1.430       .  A
C2406      C2414   1.389       .  A
C2406      C2417   1.447       .  A
C2407      C2408   1.376       .  A
C2407      H2419   1.082       .  S
C2408      H2420   1.081       .  S
C2409      C2410   1.377       .  A
C2409      H2421   1.082       .  S
C2410      H2422   1.082       .  S
C2411      C2412   1.381       .  A
C2411      H2423   1.080       .  S
C2412      H2424   1.082       .  S
C2413      C2414   1.380       .  A
C2413      H2425   1.082       .  S
C2414      H2426   1.081       .  S
C2416      C2805   1.502       .  S
C2418      C3088   1.505       .  S
N2429      C2434   1.373   1_565  A
N2429      C2433   1.354       .  A
N2429      H2461   1.043       .  S
N2430      C2437   1.353       .  A
N2430      C2438   1.371       .  A
N2431      C2436   1.352       .  A
N2431      C2435   1.377       .  A
N2431      H2462   1.044       .  S
N2432      C2439   1.373   1_565  A
N2432      C2440   1.355       .  A
C2433      C2441   1.393   1_565  A
C2433      C3505   1.433       .  A
C2434      C2450   1.437   1_556  A
C2434      C2442   1.383       .  A
C2435      C2443   1.386       .  A
C2435      C2452   1.448       .  A
C2436      C2451   1.434       .  A
C2436      C2444   1.390       .  A
C2437      C2449   1.432       .  A
C2437      C2445   1.391       .  A
C2438      C2452   1.441   1_556  A
C2438      C2446   1.384       .  A
C2439      C2447   1.385       .  A
C2439      C2450   1.447       .  A
C2440      C2448   1.390   1_565  A
C2440      C3507   1.438       .  A
C2441      C2442   1.381       .  A
C2441      H2453   1.082       .  S
C2442      H2454   1.082       .  S
C2443      C2444   1.391       .  A
C2443      H2455   1.081       .  S
C2444      H2456   1.082       .  S
C2445      C2446   1.384       .  A
C2445      H2457   1.082       .  S
C2446      H2458   1.082       .  S
C2447      C2448   1.388       .  A
C2447      H2459   1.081       .  S
C2448      H2460   1.082       .  S
C2449      C2791   1.497       .  S
C2449      C3489   1.428       .  A
C2450      C2486   1.587       .  S
C2451      C3032   1.494       .  S
C2451      C3496   1.430       .  A
C2452      C2484   1.596       .  S
N2463      C2468   1.378       .  A
N2463      C2467   1.355       .  A
N2463      H2495   1.043       .  S
N2464      C2471   1.353       .  A
N2464      C2472   1.372       .  A
N2465      C2470   1.354       .  A
N2465      C2469   1.375       .  A
N2465      H2496   1.042       .  S
N2466      C2473   1.372       .  A
N2466      C2474   1.355       .  A
C2467      C2475   1.391       .  A
C2467      C2483   1.438       .  A
C2468      C2484   1.448       .  A
C2468      C2476   1.385       .  A
C2469      C2477   1.385       .  A
C2469      C2486   1.446   1_556  A
C2470      C2485   1.433       .  A
C2470      C2478   1.391       .  A
C2471      C2483   1.435       .  A
C2471      C2479   1.391       .  A
C2472      C2486   1.440       .  A
C2472      C2480   1.383       .  A
C2473      C2481   1.383       .  A
C2473      C2484   1.441   1_556  A
C2474      C2482   1.392       .  A
C2474      C2485   1.436       .  A
C2475      C2476   1.389       .  A
C2475      H2487   1.082       .  S
C2476      H2488   1.081       .  S
C2477      C2478   1.385       .  A
C2477      H2489   1.082       .  S
C2478      H2490   1.082       .  S
C2479      C2480   1.385       .  A
C2479      H2491   1.082       .  S
C2480      H2492   1.081       .  S
C2481      C2482   1.380       .  A
C2481      H2493   1.082       .  S
C2482      H2494   1.081       .  S
C2483      C3001   1.503       .  S
C2485      C2777   1.501       .  S
O2497      C2507   1.265       .  A
O2497      V2505   1.902       .  S
O2498      V2505   1.905       .  S
O2499      C2509   1.260       .  A
O2499      V2505   1.899       .  S
O2500      C2510   1.261       .  A
O2500      V3561   1.865       .  S
O2501      V3562   1.908       .  S
O2502      V2506   1.886   1_545  S
O2503      C2508   1.264       .  A
O2503      V2506   1.897       .  S
O2504      V2506   1.908       .  S
V2505      O3556   1.882       .  S
V2506      O3557   1.889       .  S
C2507      C2822   1.523       .  S
C2508      C2763   1.505       .  S
O2511      C2521   1.265       .  A
O2511      V2519   1.901       .  S
O2512      V2519   1.911       .  S
O2513      V2519   1.901       .  S
O2514      V2519   1.897       .  S
O2515      C2524   1.263       .  A
O2515      V2520   1.892   1_455  S
O2516      C2523   1.261       .  A
O2516      V2520   1.897       .  S
O2517      C2522   1.266   1_655  A
O2517      V2520   1.902       .  S
O2518      V2520   1.896       .  S
C2521      C2808   1.499       .  S
C2522      C2721   1.500       .  S
C2523      C2738   1.469       .  S
C2524      C2752   1.469       .  S
O2525      C2535   1.263       .  A
O2525      V2533   1.893       .  S
O2526      C2536   1.264       .  A
O2526      V2533   1.893       .  S
O2527      C2537   1.261       .  A
O2527      V2533   1.904       .  S
O2528      C2538   1.263       .  A
O2528      V3589   1.882   1_545  S
O2529      C2538   1.261       .  A
O2529      V3590   1.903   1_545  S
O2530      C2537   1.262       .  A
O2530      V2534   1.873       .  S
O2531      C2536   1.268       .  A
O2531      V2534   1.909       .  S
O2532      C2535   1.268       .  A
O2532      V2534   1.907       .  S
V2533      O3584   1.884       .  S
V2533      V2534   2.082       .  T
V2534      O3585   1.890       .  S
C2535      C2794   1.508       .  S
C2536      C2707   1.512       .  S
C2537      C2679   1.464       .  S
C2538      C2693   1.466       .  S
O2539      C2549   1.270       .  A
O2539      V2547   1.923       .  S
O2540      C2550   1.270       .  A
O2540      V2547   1.919       .  S
O2541      C2551   1.261       .  A
O2541      V2547   1.880       .  S
O2542      C2552   1.257       .  A
O2542      V2547   1.880       .  S
O2543      C2552   1.267       .  A
O2543      V2548   1.901       .  S
O2544      C2551   1.266       .  A
O2544      V2548   1.913       .  S
O2545      C2550   1.263       .  A
O2545      V2548   1.909       .  S
O2546      C2549   1.263       .  A
O2546      V2548   1.897       .  S
V2547      V2548   2.088       .  T
C2549      C2780   1.499       .  S
C2550      C2665   1.494       .  S
C2551      C2696   1.475       .  S
C2552      C2682   1.469       .  S
O2553      C3619   1.268       .  A
O2553      V2561   1.914       .  S
O2554      C3620   1.269       .  A
O2554      V2561   1.909       .  S
O2555      C3621   1.259       .  A
O2555      V2561   1.876       .  S
O2556      C3622   1.260       .  A
O2557      C2566   1.260       .  A
O2558      C2565   1.263   1_545  A
O2558      V2562   1.901   1_545  S
O2559      C2564   1.263       .  A
O2559      V2562   1.893       .  S
O2560      C2563   1.263       .  A
O2560      V2562   1.901       .  S
V2561      V3618   2.086       .  T
V2562      V3617   2.085       .  T
C2563      O3609   1.276       .  A
C2563      C2878   1.522       .  S
C2564      O3610   1.274       .  A
C2564      C2766   1.514       .  S
C2565      O3611   1.261       .  A
C2565      C2637   1.470   1_455  S
C2566      O3612   1.266   1_545  A
C2566      C2654   1.474   1_545  S
O2567      C2577   1.263       .  A
O2567      V2575   1.893       .  S
O2568      C2578   1.262   1_455  A
O2568      V2575   1.893   1_455  S
O2569      C2579   1.261       .  A
O2570      C2580   1.262       .  A
O2570      V2575   1.896       .  S
O2571      C2580   1.262       .  A
O2571      V2576   1.890       .  S
O2572      C2579   1.259       .  A
O2573      C2578   1.269       .  A
O2573      V2576   1.906       .  S
O2574      C2577   1.268       .  A
O2574      V2576   1.909       .  S
V2575      V2576   2.084       .  T
C2577      C2864   1.509       .  S
C2578      C2724   1.501       .  S
C2579      C2626   1.458       .  S
C2580      C2609   1.467       .  S
O2581      C2591   1.265   1_545  A
O2581      V2589   1.902       .  S
O2582      C3648   1.266   1_545  A
O2582      V2589   1.901       .  S
O2583      C3649   1.260   1_545  A
O2583      V2589   1.896       .  S
O2584      C3650   1.263   1_545  A
O2584      V2589   1.886       .  S
O2585      C2594   1.260       .  A
O2585      V2590   1.896       .  S
O2586      C2593   1.261       .  A
O2586      V2590   1.880       .  S
O2587      C2592   1.265       .  A
O2587      V2590   1.900       .  S
O2588      C3647   1.265       .  A
O2588      V2590   1.898       .  S
V2589      V3646   2.085   1_545  T
V2590      V3645   2.087       .  T
C2591      O3644   1.268       .  A
C2591      C3906   1.509       .  S
C2592      O3638   1.266       .  A
C2592      C2710   1.492       .  S
C2593      O3639   1.257       .  A
C2593      C3696   1.450       .  S
C2594      O3640   1.260       .  A
C2594      C3707   1.456       .  S
O2595      C2605   1.269       .  A
O2595      V2603   1.913       .  S
O2596      C2606   1.268       .  A
O2596      V2603   1.916       .  S
O2597      C2607   1.261       .  A
O2597      V2603   1.900       .  S
O2598      C2608   1.262       .  A
O2598      V2603   1.890       .  S
O2599      C2608   1.261       .  A
O2599      V2604   1.896       .  S
O2600      C2607   1.262       .  A
O2600      V2604   1.885       .  S
O2601      C2606   1.266       .  A
O2601      V2604   1.903       .  S
O2602      C2605   1.265       .  A
O2602      V2604   1.903       .  S
V2603      V2604   2.087       .  T
C2605      C2836   1.512       .  S
C2606      C2668   1.501       .  S
C2607      C2612   1.465       .  S
C2608      C2623   1.465       .  S
C2609      C2610   1.412       .  A
C2609      C2614   1.409       .  A
C2610      C2611   1.406       .  A
C2610      C2615   1.451       .  S
C2611      C2612   1.407       .  A
C2611      C2618   1.451       .  S
C2612      C2613   1.406       .  A
C2613      C2614   1.406       .  A
C2613      C2616   1.450       .  S
C2614      C2617   1.450       .  S
C2615      N2622   1.157       .  T
C2616      N2621   1.157       .  T
C2617      N2619   1.158       .  T
C2618      N2620   1.157       .  T
C2623      C2624   1.411       .  A
C2623      C2628   1.409       .  A
C2624      C2625   1.404       .  A
C2624      C2629   1.449       .  S
C2625      C2626   1.405       .  A
C2625      C2632   1.452       .  S
C2626      C2627   1.405       .  A
C2627      C2628   1.405       .  A
C2627      C2630   1.450       .  S
C2628      C2631   1.449       .  S
C2629      N2636   1.156       .  T
C2630      N2635   1.157       .  T
C2631      N2633   1.157       .  T
C2632      N2634   1.157       .  T
C2637      C3694   1.413       .  A
C2637      C2642   1.410   1_565  A
C2638      C3693   1.410       .  A
C2638      C2639   1.403       .  A
C2638      C2643   1.449       .  S
C2639      C3696   1.407       .  A
C2639      C2646   1.452       .  S
C2640      C3649   1.464   1_545  S
C2640      C3695   1.404   1_545  A
C2640      C2641   1.407       .  A
C2641      C2642   1.405       .  A
C2641      C2644   1.452       .  S
C2642      C2645   1.447       .  S
C2643      N2650   1.156       .  T
C2644      N2649   1.157       .  T
C2645      N2647   1.156   1_655  T
C2646      N2648   1.157       .  T
C2651      C3650   1.463       .  S
C2651      C2652   1.401       .  A
C2651      C3712   1.405       .  A
C2652      C2653   1.401       .  A
C2652      C2657   1.452       .  S
C2653      C2654   1.417       .  A
C2653      C2660   1.449   1_565  S
C2654      C3711   1.412       .  A
C2655      C3710   1.410       .  A
C2655      C2656   1.404       .  A
C2655      C2658   1.447       .  S
C2656      C3707   1.404       .  A
C2656      C2659   1.449       .  S
C2657      N2664   1.157       .  T
C2658      N2663   1.155       .  T
C2659      N2661   1.156       .  T
C2660      N2662   1.157       .  T
C2665      C2666   1.408       .  A
C2665      C2670   1.411       .  A
C2666      C2667   1.412       .  A
C2666      C2671   1.449       .  S
C2667      C2668   1.418       .  A
C2667      C2674   1.451       .  S
C2668      C2669   1.419       .  A
C2669      C2670   1.420       .  A
C2669      C2672   1.450       .  S
C2670      C2673   1.447       .  S
C2671      N2678   1.157       .  T
C2672      N2677   1.158       .  T
C2673      N2675   1.157       .  T
C2674      N2676   1.157       .  T
C2679      C2680   1.404       .  A
C2679      C2684   1.407       .  A
C2680      C2681   1.407       .  A
C2680      C2685   1.444       .  S
C2681      C2682   1.411       .  A
C2681      C2688   1.445       .  S
C2682      C2683   1.409       .  A
C2683      C2684   1.408       .  A
C2683      C2686   1.449       .  S
C2684      C2687   1.447       .  S
C2685      N2692   1.156       .  T
C2686      N2691   1.157       .  T
C2687      N2689   1.157       .  T
C2688      N2690   1.155       .  T
C2693      C2694   1.405       .  A
C2693      C2698   1.403       .  A
C2694      C2695   1.409       .  A
C2694      C2699   1.447       .  S
C2695      C2696   1.407       .  A
C2695      C2702   1.437       .  S
C2696      C2697   1.412       .  A
C2697      C2698   1.399       .  A
C2697      C2700   1.449       .  S
C2698      C2701   1.446       .  S
C2699      N2706   1.157       .  T
C2700      N2705   1.157       .  T
C2701      N2703   1.156       .  T
C2702      N2704   1.154       .  T
C2707      C3764   1.426       .  A
C2707      C2712   1.425       .  A
C2708      C3763   1.420       .  A
C2708      C2709   1.415       .  A
C2708      C2713   1.452       .  S
C2709      C3766   1.415       .  A
C2709      C2716   1.452       .  S
C2710      C3765   1.410       .  A
C2710      C2711   1.414       .  A
C2711      C2712   1.415       .  A
C2711      C2714   1.454       .  S
C2712      C2715   1.452       .  S
C2713      N2720   1.158       .  T
C2714      N2719   1.158       .  T
C2715      N2717   1.158       .  T
C2716      N2718   1.157       .  T
C2721      C2722   1.418   1_455  A
C2722      C2723   1.413       .  A
C2722      C2727   1.452       .  S
C2723      C2724   1.418       .  A
C2723      C2730   1.453       .  S
C2725      C2726   1.418       .  A
C2725      C2728   1.453       .  S
C2726      C2729   1.450       .  S
C2727      N2734   1.157   1_655  T
C2728      N2733   1.158       .  T
C2729      N2731   1.157       .  T
C2730      N2732   1.158       .  T
C2735      C2740   1.407       .  A
C2736      C2737   1.412       .  A
C2736      C2741   1.448       .  S
C2737      C2744   1.449       .  S
C2738      C2739   1.409       .  A
C2739      C2740   1.410       .  A
C2739      C2742   1.449       .  S
C2740      C2743   1.446       .  S
C2741      N2748   1.157       .  T
C2742      N2747   1.157       .  T
C2743      N2745   1.157       .  T
C2744      N2746   1.157       .  T
C2749      C2750   1.405       .  A
C2750      C2751   1.410       .  A
C2750      C2755   1.446       .  S
C2751      C2752   1.412       .  A
C2751      C2758   1.450       .  S
C2753      C2754   1.399       .  A
C2753      C2756   1.450       .  S
C2754      C2757   1.451       .  S
C2755      N2762   1.157       .  T
C2756      N2761   1.157       .  T
C2757      N2759   1.157       .  T
C2758      N2760   1.157       .  T
C2763      C2764   1.414       .  A
C2764      C2765   1.414       .  A
C2764      C2769   1.453   1_565  S
C2765      C2766   1.422       .  A
C2765      C2772   1.453   1_565  S
C2767      C2768   1.414       .  A
C2767      C2770   1.449       .  S
C2768      C2771   1.448       .  S
C2769      N2776   1.157       .  T
C2770      N2775   1.156       .  T
C2771      N2773   1.156       .  T
C2772      N2774   1.157       .  T
C2777      C2778   1.406       .  A
C2777      C2782   1.414       .  A
C2778      C2779   1.408       .  A
C2778      C2783   1.454       .  S
C2779      C2780   1.416       .  A
C2779      C2786   1.439       .  S
C2780      C2781   1.418       .  A
C2781      C2782   1.420       .  A
C2781      C2784   1.450       .  S
C2782      C2785   1.450       .  S
C2783      N2790   1.157       .  T
C2784      N2789   1.158       .  T
C2785      N2787   1.157       .  T
C2786      N2788   1.153       .  T
C2791      C3848   1.410       .  A
C2791      C2796   1.409       .  A
C2792      C3847   1.407       .  A
C2792      C2793   1.415       .  A
C2792      C2797   1.452       .  S
C2793      C3850   1.429       .  A
C2793      C2800   1.452       .  S
C2794      C3849   1.427       .  A
C2794      C2795   1.424       .  A
C2795      C2796   1.413       .  A
C2795      C2798   1.451       .  S
C2796      C2799   1.452       .  S
C2797      N2804   1.157       .  T
C2798      N2803   1.158       .  T
C2799      N2801   1.157       .  T
C2800      N2802   1.158   1_565  T
C2805      C2806   1.408       .  A
C2806      C2807   1.410       .  A
C2806      C2811   1.452       .  S
C2807      C2808   1.420       .  A
C2807      C2814   1.449       .  S
C2809      C2810   1.406       .  A
C2809      C2812   1.451       .  S
C2810      C2813   1.452       .  S
C2811      N2818   1.157       .  T
C2812      N2817   1.157       .  T
C2813      N2815   1.157       .  T
C2814      N2816   1.156       .  T
C2819      C2824   1.407       .  A
C2820      C2821   1.422       .  A
C2820      C2825   1.452       .  S
C2821      C2828   1.452       .  S
C2822      C2823   1.430       .  A
C2823      C2824   1.415       .  A
C2823      C2826   1.451       .  S
C2824      C2827   1.453       .  S
C2825      N2832   1.157       .  T
C2826      N2831   1.158       .  T
C2827      N2829   1.157       .  T
C2828      N2830   1.158       .  T
C2833      C2834   1.411       .  A
C2833      C2838   1.410       .  A
C2834      C2835   1.415       .  A
C2834      C2839   1.452       .  S
C2835      C2836   1.424       .  A
C2835      C2842   1.452       .  S
C2836      C2837   1.424       .  A
C2837      C2838   1.416       .  A
C2837      C2840   1.450       .  S
C2838      C2841   1.451       .  S
C2839      N2846   1.157       .  T
C2840      N2845   1.157       .  T
C2841      N2843   1.157       .  T
C2842      N2844   1.158       .  T
C2847      C3904   1.410       .  A
C2847      C2852   1.409       .  A
C2848      C3903   1.410   1_545  A
C2848      C2849   1.415       .  A
C2848      C2853   1.451       .  S
C2849      C3906   1.424   1_545  A
C2849      C2856   1.451       .  S
C2850      C3647   1.519       .  S
C2850      C3905   1.428       .  A
C2850      C2851   1.429       .  A
C2851      C2852   1.414       .  A
C2851      C2854   1.452       .  S
C2852      C2855   1.453       .  S
C2853      N2860   1.157       .  T
C2854      N2859   1.158       .  T
C2855      N2857   1.157       .  T
C2856      N2858   1.158       .  T
C2861      C2866   1.408       .  A
C2862      C2863   1.416       .  A
C2862      C2867   1.451       .  S
C2863      C2870   1.451       .  S
C2864      C2865   1.426   1_655  A
C2865      C2866   1.411   1_455  A
C2865      C2868   1.453       .  S
C2866      C2869   1.452   1_655  S
C2867      N2874   1.157       .  T
C2868      N2873   1.158       .  T
C2869      N2871   1.157       .  T
C2870      N2872   1.158       .  T
C2875      C2880   1.410   1_565  A
C2876      C2877   1.414       .  A
C2876      C2881   1.452       .  S
C2877      C2884   1.451       .  S
C2878      C2879   1.428   1_565  A
C2879      C2880   1.419       .  A
C2879      C2882   1.451       .  S
C2880      C2883   1.452       .  S
C2881      N2888   1.157       .  T
C2882      N2887   1.158       .  T
C2883      N2885   1.157       .  T
C2884      N2886   1.156       .  T
C2889      C2890   1.418       .  A
C2889      C2894   1.422       .  A
C2890      C2891   1.419       .  A
C2890      C2895   1.445       .  S
C2891      C2892   1.416       .  A
C2891      C2898   1.450       .  S
C2892      C2893   1.417       .  A
C2893      C2894   1.417       .  A
C2893      C2896   1.450       .  S
C2894      C2897   1.452       .  S
C2895      N2902   1.155       .  T
C2896      N2901   1.158       .  T
C2897      N2899   1.157       .  T
C2898      N2900   1.157       .  T
C2903      C3960   1.420       .  A
C2903      C2908   1.419       .  A
C2904      C3959   1.419       .  A
C2904      C2905   1.412       .  A
C2904      C2909   1.452       .  S
C2905      C3962   1.414       .  A
C2905      C2912   1.453   1_565  S
C2906      C3961   1.412       .  A
C2906      C2907   1.412       .  A
C2907      C2908   1.415       .  A
C2907      C2910   1.450       .  S
C2908      C2911   1.450       .  S
C2909      N2916   1.158   1_565  T
C2910      N2915   1.157       .  T
C2911      N2913   1.157       .  T
C2912      N2914   1.157       .  T
C2917      C2918   1.410       .  A
C2918      C2919   1.405       .  A
C2918      C2923   1.450       .  S
C2919      C2920   1.416       .  A
C2919      C2926   1.451       .  S
C2921      C2922   1.413       .  A
C2921      C2924   1.449       .  S
C2922      C2925   1.449       .  S
C2923      N2930   1.157       .  T
C2924      N2929   1.157       .  T
C2925      N2927   1.157       .  T
C2926      N2928   1.158       .  T
C2931      C2932   1.404       .  A
C2931      C2936   1.405       .  A
C2932      C2933   1.400       .  A
C2932      C2937   1.450       .  S
C2933      C2934   1.407       .  A
C2933      C2940   1.449       .  S
C2934      C2935   1.406       .  A
C2935      C2936   1.403       .  A
C2935      C2938   1.450       .  S
C2936      C2939   1.448       .  S
C2937      N2944   1.157       .  T
C2938      N2943   1.157       .  T
C2939      N2941   1.157       .  T
C2940      N2942   1.157       .  T
C2945      C2946   1.410       .  A
C2945      C2950   1.409       .  A
C2946      C2947   1.404       .  A
C2946      C2951   1.448       .  S
C2947      C2948   1.406       .  A
C2947      C2954   1.449       .  S
C2948      C2949   1.408       .  A
C2949      C2950   1.409       .  A
C2949      C2952   1.450       .  S
C2950      C2953   1.448       .  S
C2951      N2958   1.157       .  T
C2952      N2957   1.158       .  T
C2953      N2955   1.157       .  T
C2954      N2956   1.157       .  T
C2959      C2960   1.417       .  A
C2960      C2961   1.421       .  A
C2960      C2965   1.450       .  S
C2961      C2962   1.418       .  A
C2961      C2968   1.451       .  S
C2963      C2964   1.419       .  A
C2963      C2966   1.452       .  S
C2964      C2967   1.443       .  S
C2965      N2972   1.157       .  T
C2966      N2971   1.157       .  T
C2967      N2969   1.154       .  T
C2968      N2970   1.157       .  T
C2973      C4030   1.410       .  A
C2973      C2978   1.411       .  A
C2974      C4029   1.406       .  A
C2974      C2975   1.407       .  A
C2974      C2979   1.449       .  S
C2975      C4032   1.412       .  A
C2975      C2982   1.450       .  S
C2976      C4031   1.404       .  A
C2976      C2977   1.407       .  A
C2977      C2978   1.406       .  A
C2977      C2980   1.451       .  S
C2978      C2981   1.452       .  S
C2979      N2986   1.157       .  T
C2980      N2985   1.157       .  T
C2981      N2983   1.157       .  T
C2982      N2984   1.157   1_655  T
C2987      C2988   1.405       .  A
C2987      C4048   1.403       .  A
C2988      C2989   1.405       .  A
C2988      C2993   1.450       .  S
C2989      C2990   1.410       .  A
C2989      C2996   1.450       .  S
C2990      C4047   1.409       .  A
C2991      C4046   1.410       .  A
C2991      C2992   1.405       .  A
C2991      C2994   1.449       .  S
C2992      C4043   1.405       .  A
C2992      C2995   1.450       .  S
C2993      N3000   1.157       .  T
C2994      N2999   1.157       .  T
C2995      N2997   1.157       .  T
C2996      N2998   1.157       .  T
C3001      C3002   1.413       .  A
C3001      C3006   1.410       .  A
C3002      C3003   1.417       .  A
C3002      C3007   1.450       .  S
C3003      C3004   1.417       .  A
C3003      C3010   1.449       .  S
C3004      C3005   1.423       .  A
C3005      C3006   1.413       .  A
C3005      C3008   1.453       .  S
C3006      C3009   1.452       .  S
C3007      N3014   1.157       .  T
C3008      N3013   1.158       .  T
C3009      N3011   1.158       .  T
C3010      N3012   1.157       .  T
C3015      C3016   1.413       .  A
C3015      C3020   1.420       .  A
C3016      C3017   1.421       .  A
C3016      C3021   1.451       .  S
C3017      C3018   1.426       .  A
C3017      C3024   1.452       .  S
C3018      C3019   1.416       .  A
C3019      C3020   1.417       .  A
C3019      C3022   1.451       .  S
C3020      C3023   1.452       .  S
C3021      N3028   1.157       .  T
C3022      N3027   1.157       .  T
C3023      N3025   1.157       .  T
C3024      N3026   1.158       .  T
C3029      C4086   1.424       .  A
C3029      C3034   1.421       .  A
C3030      C4085   1.427       .  A
C3030      C3031   1.417       .  A
C3030      C3035   1.451       .  S
C3031      C4088   1.411       .  A
C3031      C3038   1.452       .  S
C3032      C4087   1.408       .  A
C3032      C3033   1.410       .  A
C3033      C3034   1.412       .  A
C3033      C3036   1.452       .  S
C3034      C3037   1.451       .  S
C3035      N3042   1.157       .  T
C3036      N3041   1.157       .  T
C3037      N3039   1.157       .  T
C3038      N3040   1.157       .  T
C3043      C3044   1.403       .  A
C3043      C3048   1.405       .  A
C3044      C3045   1.400       .  A
C3044      C3049   1.451       .  S
C3045      C3046   1.408       .  A
C3045      C3052   1.449       .  S
C3046      C3047   1.410       .  A
C3047      C3048   1.405       .  A
C3047      C3050   1.450       .  S
C3048      C3051   1.449       .  S
C3049      N3056   1.157       .  T
C3050      N3055   1.157       .  T
C3051      N3053   1.157       .  T
C3052      N3054   1.156       .  T
C3057      C3058   1.404       .  A
C3057      C3062   1.414       .  A
C3058      C3059   1.399       .  A
C3058      C3063   1.451       .  S
C3059      C3060   1.412       .  A
C3059      C3066   1.450       .  S
C3060      C3061   1.408       .  A
C3061      C3062   1.410       .  A
C3061      C3064   1.451       .  S
C3062      C3065   1.450       .  S
C3063      N3070   1.156       .  T
C3064      N3069   1.157       .  T
C3065      N3067   1.157       .  T
C3066      N3068   1.156       .  T
C3071      C4128   1.422       .  A
C3071      C3076   1.419       .  A
C3072      C4127   1.425       .  A
C3072      C3073   1.413       .  A
C3072      C3077   1.452       .  S
C3073      C4130   1.416       .  A
C3073      C3080   1.454       .  S
C3074      C4129   1.420       .  A
C3074      C3075   1.425       .  A
C3075      C3076   1.414       .  A
C3075      C3078   1.454       .  S
C3076      C3079   1.454       .  S
C3077      N3084   1.157       .  T
C3078      N3083   1.158       .  T
C3079      N3081   1.158       .  T
C3080      N3082   1.157       .  T
C3085      C3090   1.426       .  A
C3086      C3087   1.414       .  A
C3086      C3091   1.448       .  S
C3087      C3094   1.451       .  S
C3088      C3089   1.408       .  A
C3089      C3090   1.416       .  A
C3089      C3092   1.451       .  S
C3090      C3093   1.450       .  S
C3091      N3098   1.156       .  T
C3092      N3097   1.157       .  T
C3093      N3095   1.157       .  T
C3094      N3096   1.157       .  T
C3099      C3100   1.424       .  A
C3100      C3101   1.417       .  A
C3100      C3105   1.453       .  S
C3101      C3102   1.419       .  A
C3101      C3108   1.453       .  S
C3103      C3104   1.418       .  A
C3103      C3106   1.451       .  S
C3104      C3107   1.449       .  S
C3105      N3112   1.157       .  T
C3106      N3111   1.158       .  T
C3107      N3109   1.157       .  T
C3108      N3110   1.158       .  T
C3113      C3179   1.517       .  S
C3113      C3114   1.426       .  A
C3114      C3115   1.417       .  A
C3114      C3119   1.451       .  S
C3115      C3116   1.411       .  A
C3115      C3122   1.452       .  S
C3117      C3118   1.412       .  A
C3117      C3120   1.451       .  S
C3118      C3121   1.452       .  S
C3119      N3126   1.157       .  T
C3120      N3125   1.157   1_455  T
C3121      N3123   1.157       .  T
C3122      N3124   1.157       .  T
C3127      C3132   1.417       .  A
C3128      C3129   1.409       .  A
C3128      C3133   1.449       .  S
C3129      C3136   1.448       .  S
C3130      C3131   1.416       .  A
C3131      C3132   1.400       .  A
C3131      C3134   1.454       .  S
C3132      C3135   1.456       .  S
C3133      N3140   1.157       .  T
C3134      N3139   1.157       .  T
C3135      N3137   1.157       .  T
C3136      N3138   1.157       .  T
C3141      C3142   1.424       .  A
C3142      C3143   1.405       .  A
C3142      C3147   1.455       .  S
C3143      C3144   1.417       .  A
C3143      C3150   1.452       .  S
C3145      C3146   1.412       .  A
C3145      C3148   1.448       .  S
C3146      C3149   1.450       .  S
C3147      N3154   1.157       .  T
C3148      N3153   1.157       .  T
C3149      N3151   1.157       .  T
C3150      N3152   1.156       .  T
C3155      C3160   1.421       .  A
C3156      C3157   1.419       .  A
C3156      C3161   1.451       .  S
C3157      C3164   1.452       .  S
C3158      C3159   1.419       .  A
C3159      C3160   1.428       .  A
C3159      C3162   1.449       .  S
C3160      C3163   1.450       .  S
C3161      N3168   1.158       .  T
C3162      N3167   1.157       .  T
C3163      N3165   1.158       .  T
C3164      N3166   1.157       .  T
O3169      C3179   1.265       .  A
O3170      V3177   1.911       .  S
O3171      C3181   1.265   1_545  A
O3171      V3177   1.915       .  S
O3172      C3182   1.264       .  A
O3174      V3178   1.890       .  S
O3176      V3178   1.887       .  S
C3180      C4214   1.505       .  S
O3183      C3193   1.264       .  A
O3183      V3191   1.892       .  S
O3184      V3191   1.893       .  S
O3185      V3191   1.891       .  S
O3186      V3191   1.902       .  S
O3187      C3196   1.263       .  A
O3187      V3192   1.883       .  S
O3188      C3195   1.262       .  A
O3188      V3192   1.904   1_655  S
O3189      C3194   1.262       .  A
O3189      V3192   1.886       .  S
O3190      V3192   1.894       .  S
C3193      C4141   1.503       .  S
C3194      C4155   1.489       .  S
C3195      C4200   1.473       .  S
C3196      C4186   1.466       .  S
O3197      C3207   1.271       .  A
O3197      V3205   1.919       .  S
O3198      C3208   1.269       .  A
O3198      V3205   1.917       .  S
O3199      C3209   1.262       .  A
O3199      V3205   1.908       .  S
O3200      C3210   1.263       .  A
O3201      C3210   1.260       .  A
O3202      C3209   1.262       .  A
O3202      V3206   1.877       .  S
O3203      C3208   1.264       .  A
O3203      V3206   1.896       .  S
O3204      C3207   1.265       .  A
O3204      V3206   1.902       .  S
V3205      V3206   2.081       .  T
C3207      C4085   1.520       .  S
C3208      C4127   1.516       .  S
C3209      C4099   1.467       .  S
C3210      C4113   1.466       .  S
O3211      C3221   1.265       .  A
O3211      V3219   1.903       .  S
O3212      C3222   1.265       .  A
O3212      V3219   1.915       .  S
O3213      C3223   1.268       .  A
O3213      V3219   1.906       .  S
O3214      C3224   1.265       .  A
O3214      V3219   1.909       .  S
O3215      C3224   1.260       .  A
O3215      V3220   1.872       .  S
O3216      C3223   1.259       .  A
O3216      V3220   1.885       .  S
O3217      C3222   1.271       .  A
O3217      V3220   1.922       .  S
O3218      C3221   1.268       .  A
O3218      V3220   1.921       .  S
V3219      V3220   2.087       .  T
C3221      C4060   1.492       .  S
C3222      C4071   1.502       .  S
C3223      C4116   1.477       .  S
C3224      C4102   1.472       .  S
O3225      C3235   1.267       .  A
O3225      V3233   1.906       .  S
O3226      C3236   1.268       .  A
O3226      V3233   1.911       .  S
O3227      C3237   1.261       .  A
O3228      C3238   1.262       .  A
O3228      V3233   1.904       .  S
O3229      V3234   1.883       .  S
O3231      V3234   1.892       .  S
O3232      V3234   1.895       .  S
C3235      C4015   1.518       .  S
C3236      C4211   1.515       .  S
C3237      C4043   1.460       .  S
C3238      C4032   1.472   1_455  S
O3239      C3249   1.270       .  A
O3239      V3247   1.913       .  S
O3240      C3250   1.267       .  A
O3240      V3247   1.907       .  S
O3241      C3251   1.259       .  A
O3242      C3252   1.254   1_455  A
O3242      V3247   1.869       .  S
O3243      C3252   1.264       .  A
O3243      V3248   1.893   1_655  S
O3244      C3251   1.264       .  A
O3245      C3250   1.258       .  A
O3245      V3248   1.876       .  S
O3246      C3249   1.259       .  A
O3246      V3248   1.880       .  S
V3247      V3248   2.088       .  T
C3249      C3973   1.508       .  S
C3250      C4158   1.478       .  S
C3251      C4001   1.461       .  S
C3252      C3987   1.451       .  S
O3253      V3261   1.892       .  S
O3254      V3261   1.892       .  S
O3255      V3261   1.884       .  S
O3256      V3261   1.873       .  S
O3257      C3266   1.263       .  A
O3257      V3262   1.911       .  S
O3258      C3265   1.266       .  A
O3258      V3262   1.898       .  S
O3259      C3264   1.265       .  A
O3259      V3262   1.899       .  S
O3260      C3263   1.263       .  A
O3260      V3262   1.896       .  S
C3263      C3959   1.501       .  S
C3264      C4130   1.502       .  S
C3265      C4046   1.464   1_565  S
C3266      C4029   1.468       .  S
O3267      C3277   1.269       .  A
O3267      V3275   1.918       .  S
O3268      C3278   1.268       .  A
O3268      V3275   1.918       .  S
O3269      C3279   1.264       .  A
O3269      V3275   1.897       .  S
O3270      C3280   1.264       .  A
O3270      V3275   1.907       .  S
O3271      C3280   1.258       .  A
O3271      V3276   1.870       .  S
O3272      C3279   1.255       .  A
O3272      V3276   1.867       .  S
O3273      C3278   1.268       .  A
O3273      V3276   1.910       .  S
O3274      C3277   1.267       .  A
O3274      V3276   1.903       .  S
V3275      V3276   2.086       .  T
C3277      C3945   1.523       .  S
C3278      C4074   1.507       .  S
C3279      C3990   1.453       .  S
C3280      C4004   1.464       .  S
N3281      C3286   1.375       .  A
N3281      C3285   1.361       .  A
N3281      H3313   1.043       .  S
N3282      C3289   1.353       .  A
N3282      C3290   1.369       .  A
N3283      C3288   1.354       .  A
N3283      C3287   1.377   1_455  A
N3283      H3314   1.038       .  S
N3284      C3291   1.378       .  A
N3284      C3292   1.362       .  A
C3285      C3293   1.389       .  A
C3286      C3294   1.386       .  A
C3287      C3295   1.383   1_565  A
C3287      C3304   1.447       .  A
C3288      C3303   1.436       .  A
C3288      C3296   1.391   1_565  A
C3289      C3301   1.432       .  A
C3289      C3297   1.390       .  A
C3290      C3298   1.385       .  A
C3291      C3299   1.385       .  A
C3291      C3302   1.451       .  A
C3292      C3300   1.389       .  A
C3293      C3294   1.379       .  A
C3293      H3305   1.082       .  S
C3294      H3306   1.082       .  S
C3295      C3296   1.373   1_655  A
C3295      H3307   1.081       .  S
C3296      H3308   1.077   1_455  S
C3297      C3298   1.386       .  A
C3297      H3309   1.082       .  S
C3298      H3310   1.082       .  S
C3299      C3300   1.375       .  A
C3299      H3311   1.081       .  S
C3300      H3312   1.082       .  S
C3301      C3931   1.503       .  S
C3302      C3372   1.611   1_545  S
C3303      C4018   1.516       .  S
C3304      C3370   1.580       .  S
N3315      C3320   1.381       .  A
N3315      C3319   1.363   1_655  A
N3315      H3347   1.043   1_655  S
N3316      C3323   1.348       .  A
N3316      C3324   1.365       .  A
N3317      C3322   1.355       .  A
N3317      C3321   1.372       .  A
N3317      H3348   1.044       .  S
N3318      C3325   1.373       .  A
N3318      C3326   1.356       .  A
C3319      C3327   1.388   1_455  A
C3319      C3335   1.443       .  A
C3320      C3336   1.458       .  A
C3320      C3328   1.388       .  A
C3321      C3329   1.383       .  A
C3321      C3338   1.441       .  A
C3322      C3330   1.394       .  A
C3323      C3331   1.389       .  A
C3324      C3338   1.432       .  A
C3324      C3332   1.385       .  A
C3325      C3333   1.387       .  A
C3325      C3336   1.449       .  A
C3326      C3334   1.384       .  A
C3326      C3337   1.429   1_655  A
C3327      C3328   1.385       .  A
C3327      H3339   1.082       .  S
C3328      H3340   1.081       .  S
C3329      C3330   1.389       .  A
C3329      H3341   1.082       .  S
C3330      H3342   1.082       .  S
C3331      C3332   1.385       .  A
C3331      H3343   1.082       .  S
C3332      H3344   1.081       .  S
C3333      C3334   1.375       .  A
C3333      H3345   1.079       .  S
C3334      H3346   1.082       .  S
C3335      C3917   1.509       .  S
C3336      C3405   1.611       .  S
C3337      C3976   1.494       .  S
C3338      C3403   1.574       .  S
N3349      C3354   1.374       .  A
N3349      C3353   1.350   1_565  A
N3349      H3381   1.042       .  S
N3350      C3357   1.359   1_545  A
N3350      C3358   1.371   1_545  A
N3351      C3356   1.360       .  A
N3351      C3355   1.381       .  A
N3351      H3382   1.040       .  S
N3352      C3359   1.369       .  A
N3352      C3360   1.351       .  A
C3353      C3361   1.390       .  A
C3353      C3369   1.430   1_545  A
C3354      C3370   1.443       .  A
C3354      C3362   1.386   1_565  A
C3355      C3363   1.387       .  A
C3355      C3372   1.459       .  A
C3356      C3371   1.444       .  A
C3356      C3364   1.388       .  A
C3357      C3369   1.439       .  A
C3357      C3365   1.387       .  A
C3358      C3372   1.449       .  A
C3358      C3366   1.387       .  A
C3359      C3367   1.382       .  A
C3359      C3370   1.433       .  A
C3360      C3368   1.392       .  A
C3360      C3371   1.431       .  A
C3361      C3362   1.389       .  A
C3361      H3373   1.082       .  S
C3362      H3374   1.082       .  S
C3363      C3364   1.377       .  A
C3363      H3375   1.080       .  S
C3364      H3376   1.080       .  S
C3365      C3366   1.381       .  A
C3365      H3377   1.082       .  S
C3366      H3378   1.081       .  S
C3367      C3368   1.375       .  A
C3367      H3379   1.082       .  S
C3368      H3380   1.082       .  S
C3369      C3903   1.506       .  S
C3371      C3962   1.506       .  S
N3383      C3388   1.349       .  A
N3383      C3387   1.371       .  A
N3383      H3415   1.043       .  S
N3384      C3391   1.371       .  A
N3384      C3392   1.351       .  A
N3385      C3390   1.383       .  A
N3385      C3389   1.364       .  A
N3385      H3416   1.040       .  S
N3386      C3393   1.357       .  A
N3386      C3394   1.367       .  A
C3387      C3395   1.387       .  A
C3387      C3403   1.442       .  A
C3388      C3404   1.424       .  A
C3388      C3396   1.387       .  A
C3389      C3397   1.388       .  A
C3389      C3406   1.447       .  A
C3390      C3405   1.461       .  A
C3390      C3398   1.388       .  A
C3391      C3403   1.431       .  A
C3391      C3399   1.380       .  A
C3392      C3406   1.434       .  A
C3392      C3400   1.394       .  A
C3393      C3401   1.387       .  A
C3393      C3404   1.432       .  A
C3394      C3402   1.387       .  A
C3394      C3405   1.440       .  A
C3395      C3396   1.388       .  A
C3395      H3407   1.082       .  S
C3396      H3408   1.082       .  S
C3397      C3398   1.384       .  A
C3397      H3409   1.082       .  S
C3398      H3410   1.082       .  S
C3399      C3400   1.374       .  A
C3399      H3411   1.081       .  S
C3400      H3412   1.082       .  S
C3401      C3402   1.382       .  A
C3401      H3413   1.082       .  S
C3402      H3414   1.082       .  S
C3404      C3889   1.505       .  S
C3406      C3948   1.511       .  S
N3417      C3422   1.352       .  A
N3417      C3421   1.366       .  A
N3417      H3449   1.044       .  S
N3418      C3425   1.375       .  A
N3418      C3426   1.359       .  A
N3419      C3424   1.374   1_545  A
N3419      C3423   1.359       .  A
N3419      H3450   1.043   1_554  S
N3420      C3427   1.355       .  A
N3420      C3428   1.371   1_545  A
C3421      C3429   1.388       .  A
C3421      C3437   1.435       .  A
C3422      C3438   1.418       .  A
C3422      C3430   1.385       .  A
C3423      C3431   1.386   1_545  A
C3423      C3440   1.430       .  A
C3424      C3439   1.448   1_554  A
C3424      C3432   1.387       .  A
C3425      C3437   1.453   1_554  A
C3425      C3433   1.386       .  A
C3426      C3434   1.388       .  A
C3427      C3435   1.387   1_545  A
C3428      C3436   1.387       .  A
C3428      C3439   1.444       .  A
C3429      C3430   1.384       .  A
C3429      H3441   1.082       .  S
C3430      H3442   1.082       .  S
C3431      C3432   1.378       .  A
C3431      H3443   1.081       .  S
C3432      H3444   1.081       .  S
C3433      C3434   1.375       .  A
C3433      H3445   1.079       .  S
C3434      H3446   1.081       .  S
C3435      C3436   1.379       .  A
C3435      H3447   1.082       .  S
C3436      H3448   1.080       .  S
C3437      C3473   1.594       .  S
C3438      C3875   1.505       .  S
C3439      C3471   1.596       .  S
C3440      C4172   1.514       .  S
N3451      C3456   1.358       .  A
N3451      C3455   1.380       .  A
N3451      H3483   1.041       .  S
N3452      C3459   1.360       .  A
N3452      C3460   1.349       .  A
N3453      C3458   1.364       .  A
N3453      C3457   1.350       .  A
N3453      H3484   1.044   1_554  S
N3454      C3461   1.357       .  A
N3454      C3462   1.376       .  A
C3455      C3463   1.386       .  A
C3455      C3471   1.450       .  A
C3456      C3472   1.441       .  A
C3456      C3464   1.390       .  A
C3457      C3465   1.386       .  A
C3457      C3474   1.414       .  A
C3458      C3473   1.430   1_554  A
C3458      C3466   1.388       .  A
C3459      C3471   1.431   1_554  A
C3459      C3467   1.388       .  A
C3460      C3474   1.416       .  A
C3460      C3468   1.386       .  A
C3461      C3469   1.389       .  A
C3461      C3472   1.439       .  A
C3462      C3470   1.386       .  A
C3462      C3473   1.451       .  A
C3463      C3464   1.383       .  A
C3463      H3475   1.082       .  S
C3464      H3476   1.082       .  S
C3465      C3466   1.382       .  A
C3465      H3477   1.083       .  S
C3466      H3478   1.082       .  S
C3467      C3468   1.379       .  A
C3467      H3479   1.082       .  S
C3468      H3480   1.083       .  S
C3469      C3470   1.379       .  A
C3469      H3481   1.082       .  S
C3470      H3482   1.080       .  S
C3472      C3861   1.509       .  S
C3474      C4144   1.492       .  S
N3485      C3490   1.373       .  A
N3485      C3489   1.349       .  A
N3485      H3517   1.044       .  S
N3486      C3493   1.353       .  A
N3486      C3494   1.371       .  A
N3487      C3492   1.355       .  A
N3487      C3491   1.375       .  A
N3487      H3518   1.043       .  S
N3488      C3495   1.370       .  A
N3488      C3496   1.350       .  A
C3489      C3497   1.390       .  A
C3490      C3506   1.443       .  A
C3490      C3498   1.385       .  A
C3491      C3499   1.383       .  A
C3491      C3508   1.442   1_554  A
C3492      C3507   1.437       .  A
C3492      C3500   1.393       .  A
C3493      C3505   1.433       .  A
C3493      C3501   1.390       .  A
C3494      C3508   1.442       .  A
C3494      C3502   1.384       .  A
C3495      C3503   1.383       .  A
C3495      C3506   1.438   1_554  A
C3496      C3504   1.392       .  A
C3497      C3498   1.390       .  A
C3497      H3509   1.082       .  S
C3498      H3510   1.082       .  S
C3499      C3500   1.383       .  A
C3499      H3511   1.082       .  S
C3500      H3512   1.082       .  S
C3501      C3502   1.387       .  A
C3501      H3513   1.082       .  S
C3502      H3514   1.081       .  S
C3503      C3504   1.384       .  A
C3503      H3515   1.082       .  S
C3504      H3516   1.082       .  S
C3505      C3847   1.500       .  S
C3506      C3542   1.589       .  S
C3507      C4088   1.509       .  S
C3508      C3540   1.584       .  S
N3519      C3524   1.372       .  A
N3519      C3523   1.354       .  A
N3519      H3551   1.042       .  S
N3520      C3527   1.355       .  A
N3520      C3528   1.370       .  A
N3521      C3526   1.357       .  A
N3521      C3525   1.378       .  A
N3521      H3552   1.042       .  S
N3522      C3529   1.374       .  A
N3522      C3530   1.357       .  A
C3523      C3531   1.390       .  A
C3523      C3539   1.431       .  A
C3524      C3540   1.440   1_554  A
C3524      C3532   1.386       .  A
C3525      C3533   1.383       .  A
C3525      C3542   1.447       .  A
C3526      C3541   1.442       .  A
C3526      C3534   1.393       .  A
C3527      C3539   1.432       .  A
C3527      C3535   1.389       .  A
C3528      C3542   1.440   1_554  A
C3528      C3536   1.385       .  A
C3529      C3537   1.384       .  A
C3529      C3540   1.447       .  A
C3530      C3538   1.391       .  A
C3530      C3541   1.442       .  A
C3531      C3532   1.384       .  A
C3531      H3543   1.082       .  S
C3532      H3544   1.082       .  S
C3533      C3534   1.384       .  A
C3533      H3545   1.081       .  S
C3534      H3546   1.081       .  S
C3535      C3536   1.381       .  A
C3535      H3547   1.082       .  S
C3536      H3548   1.082       .  S
C3537      C3538   1.386       .  A
C3537      H3549   1.081       .  S
C3538      H3550   1.082       .  S
C3539      C4057   1.505       .  S
C3541      C3833   1.513       .  S
O3553      C3563   1.269       .  A
O3553      V3561   1.914       .  S
O3554      V3561   1.910       .  S
O3555      C3565   1.255       .  A
O3555      V3561   1.882       .  S
O3556      C3566   1.263       .  A
O3558      V3562   1.894       .  S
O3559      C3564   1.267       .  A
O3559      V3562   1.909       .  S
O3560      V3562   1.910       .  S
C3563      C3878   1.510       .  S
C3564      C3819   1.497       .  S
O3567      C3577   1.268       .  A
O3567      V3575   1.913       .  S
O3568      V3575   1.907       .  S
O3569      V3575   1.878       .  S
O3570      V3575   1.894       .  S
O3571      C3580   1.260       .  A
O3571      V3576   1.876       .  S
O3572      C3579   1.258       .  A
O3572      V3576   1.885       .  S
O3573      C3578   1.266       .  A
O3573      V3576   1.902       .  S
O3574      V3576   1.906       .  S
C3577      C3864   1.507       .  S
C3578      C3777   1.496       .  S
C3579      C3794   1.458       .  S
C3580      C3808   1.455       .  S
O3581      C3591   1.265       .  A
O3581      V3589   1.898       .  S
O3582      C3592   1.263       .  A
O3582      V3589   1.895       .  S
O3583      C3593   1.258       .  A
O3583      V3589   1.884       .  S
O3584      C3594   1.263       .  A
O3585      C3594   1.257       .  A
O3586      C3593   1.263       .  A
O3586      V3590   1.887       .  S
O3587      C3592   1.268       .  A
O3587      V3590   1.908       .  S
O3588      C3591   1.268       .  A
O3588      V3590   1.907       .  S
V3589      V3590   2.083       .  T
C3591      C3850   1.516       .  S
C3592      C3763   1.507       .  S
C3593      C3735   1.462       .  S
C3594      C3749   1.456       .  S
O3595      C3605   1.267       .  A
O3595      V3603   1.907       .  S
O3596      C3606   1.265       .  A
O3596      V3603   1.901       .  S
O3597      C3607   1.262       .  A
O3597      V3603   1.884       .  S
O3598      C3608   1.262       .  A
O3598      V3603   1.900       .  S
O3599      C3608   1.261       .  A
O3599      V3604   1.878       .  S
O3600      C3607   1.258       .  A
O3600      V3604   1.888       .  S
O3601      C3606   1.270       .  A
O3601      V3604   1.917       .  S
O3602      C3605   1.270       .  A
O3602      V3604   1.918       .  S
V3603      V3604   2.085       .  T
C3605      C3836   1.522       .  S
C3606      C3721   1.509       .  S
C3607      C3752   1.458       .  S
C3608      C3738   1.464       .  S
O3609      V3617   1.938       .  S
O3610      V3617   1.936       .  S
O3611      V3617   1.891       .  S
O3613      C3622   1.263       .  A
O3614      C3621   1.260       .  A
O3614      V3618   1.888       .  S
O3615      C3620   1.265       .  A
O3615      V3618   1.904       .  S
O3616      C3619   1.266       .  A
O3616      V3618   1.899       .  S
C3619      C3934   1.503       .  S
C3620      C3822   1.513       .  S
C3621      C3693   1.454       .  S
C3622      C3710   1.464       .  S
O3623      C3633   1.268       .  A
O3623      V3631   1.909       .  S
O3624      C3634   1.265       .  A
O3624      V3631   1.903       .  S
O3625      C3635   1.263       .  A
O3626      C3636   1.257       .  A
O3626      V3631   1.877   1_655  S
O3627      C3636   1.262       .  A
O3627      V3632   1.887   1_655  S
O3628      C3635   1.258       .  A
O3629      C3634   1.267       .  A
O3629      V3632   1.908       .  S
O3630      C3633   1.268       .  A
O3630      V3632   1.913       .  S
V3631      V3632   2.086       .  T
C3633      C3920   1.523       .  S
C3634      C3780   1.494       .  S
C3635      C3682   1.458       .  S
C3636      C3665   1.459       .  S
O3637      C3647   1.269       .  A
O3637      V3645   1.914       .  S
O3638      V3645   1.907       .  S
O3639      V3645   1.879       .  S
O3640      V3645   1.874       .  S
O3641      C3650   1.259       .  A
O3641      V3646   1.895       .  S
O3642      C3649   1.262       .  A
O3642      V3646   1.888       .  S
O3643      C3648   1.266       .  A
O3643      V3646   1.905       .  S
O3644      V3646   1.906       .  S
C3648      C3766   1.495       .  S
O3651      C3661   1.262       .  A
O3651      V3659   1.893       .  S
O3652      C3662   1.261       .  A
O3652      V3659   1.892       .  S
O3653      C3663   1.263       .  A
O3653      V3659   1.895       .  S
O3654      C3664   1.265       .  A
O3654      V3659   1.891       .  S
O3655      C3664   1.256       .  A
O3655      V3660   1.887       .  S
O3656      C3663   1.256       .  A
O3656      V3660   1.862       .  S
O3657      C3662   1.271       .  A
O3657      V3660   1.925       .  S
O3658      C3661   1.273       .  A
O3658      V3660   1.929       .  S
V3659      V3660   2.088       .  T
C3661      C3892   1.509       .  S
C3662      C3724   1.495       .  S
C3663      C3668   1.454       .  S
C3664      C3679   1.459       .  S
C3665      C3666   1.408       .  A
C3665      C3670   1.412       .  A
C3666      C3667   1.395       .  A
C3666      C3671   1.450       .  S
C3667      C3668   1.411       .  A
C3667      C3674   1.456       .  S
C3668      C3669   1.408       .  A
C3669      C3670   1.405       .  A
C3669      C3672   1.451       .  S
C3670      C3673   1.451       .  S
C3671      N3678   1.156       .  T
C3672      N3677   1.157       .  T
C3673      N3675   1.157       .  T
C3674      N3676   1.157       .  T
C3679      C3680   1.405       .  A
C3679      C3684   1.406       .  A
C3680      C3681   1.400       .  A
C3680      C3685   1.449       .  S
C3681      C3682   1.406       .  A
C3681      C3688   1.449       .  S
C3682      C3683   1.407       .  A
C3683      C3684   1.406       .  A
C3683      C3686   1.448       .  S
C3684      C3687   1.448       .  S
C3685      N3692   1.156       .  T
C3686      N3691   1.157       .  T
C3687      N3689   1.157       .  T
C3688      N3690   1.156       .  T
C3693      C3698   1.409       .  A
C3694      C3695   1.407       .  A
C3694      C3699   1.449       .  S
C3695      C3702   1.450       .  S
C3696      C3697   1.406       .  A
C3697      C3698   1.397       .  A
C3697      C3700   1.452       .  S
C3698      C3701   1.453       .  S
C3699      N3706   1.157   1_655  T
C3700      N3705   1.157       .  T
C3701      N3703   1.157       .  T
C3702      N3704   1.157   1_565  T
C3707      C3708   1.405       .  A
C3708      C3709   1.403       .  A
C3708      C3713   1.453       .  S
C3709      C3710   1.411       .  A
C3709      C3716   1.449       .  S
C3711      C3712   1.410       .  A
C3711      C3714   1.444       .  S
C3712      C3715   1.450       .  S
C3713      N3720   1.157       .  T
C3714      N3719   1.155       .  T
C3715      N3717   1.157       .  T
C3716      N3718   1.156       .  T
C3721      C3722   1.422       .  A
C3721      C3726   1.420       .  A
C3722      C3723   1.420       .  A
C3722      C3727   1.451       .  S
C3723      C3724   1.413       .  A
C3723      C3730   1.451       .  S
C3724      C3725   1.412       .  A
C3725      C3726   1.414       .  A
C3725      C3728   1.452       .  S
C3726      C3729   1.450       .  S
C3727      N3734   1.158       .  T
C3728      N3733   1.157       .  T
C3729      N3731   1.157       .  T
C3730      N3732   1.158       .  T
C3735      C3736   1.411       .  A
C3735      C3740   1.407       .  A
C3736      C3737   1.407       .  A
C3736      C3741   1.451       .  S
C3737      C3738   1.407       .  A
C3737      C3744   1.447       .  S
C3738      C3739   1.409       .  A
C3739      C3740   1.399       .  A
C3739      C3742   1.451       .  S
C3740      C3743   1.452       .  S
C3741      N3748   1.157       .  T
C3742      N3747   1.157       .  T
C3743      N3745   1.157       .  T
C3744      N3746   1.156       .  T
C3749      C3750   1.407       .  A
C3749      C3754   1.405       .  A
C3750      C3751   1.403       .  A
C3750      C3755   1.450       .  S
C3751      C3752   1.407       .  A
C3751      C3758   1.450       .  S
C3752      C3753   1.409       .  A
C3753      C3754   1.402       .  A
C3753      C3756   1.451       .  S
C3754      C3757   1.450       .  S
C3755      N3762   1.157       .  T
C3756      N3761   1.157       .  T
C3757      N3759   1.157       .  T
C3758      N3760   1.157       .  T
C3763      C3768   1.424       .  A
C3764      C3765   1.413       .  A
C3764      C3769   1.453       .  S
C3765      C3772   1.452       .  S
C3766      C3767   1.414       .  A
C3767      C3768   1.413       .  A
C3767      C3770   1.454   1_565  S
C3768      C3771   1.453   1_565  S
C3769      N3776   1.158       .  T
C3770      N3775   1.158       .  T
C3771      N3773   1.158       .  T
C3772      N3774   1.158       .  T
C3777      C3778   1.417       .  A
C3778      C3779   1.415       .  A
C3778      C3783   1.452   1_455  S
C3779      C3780   1.416       .  A
C3779      C3786   1.452   1_455  S
C3781      C3782   1.414       .  A
C3781      C3784   1.451       .  S
C3782      C3785   1.451       .  S
C3783      N3790   1.158       .  T
C3784      N3789   1.157       .  T
C3785      N3787   1.157       .  T
C3786      N3788   1.157       .  T
C3791      C3796   1.409       .  A
C3792      C3793   1.395       .  A
C3792      C3797   1.452       .  S
C3793      C3800   1.454       .  S
C3794      C3795   1.410       .  A
C3795      C3796   1.406       .  A
C3795      C3798   1.451       .  S
C3796      C3799   1.452       .  S
C3797      N3804   1.157       .  T
C3798      N3803   1.157       .  T
C3799      N3801   1.157       .  T
C3800      N3802   1.157       .  T
C3805      C3806   1.410       .  A
C3806      C3807   1.406       .  A
C3806      C3811   1.451       .  S
C3807      C3808   1.407       .  A
C3807      C3814   1.450       .  S
C3809      C3810   1.399       .  A
C3809      C3812   1.451       .  S
C3810      C3813   1.450       .  S
C3811      N3818   1.157       .  T
C3812      N3817   1.156       .  T
C3813      N3815   1.156       .  T
C3814      N3816   1.157       .  T
C3819      C3820   1.415       .  A
C3820      C3821   1.417       .  A
C3820      C3825   1.453       .  S
C3821      C3822   1.423       .  A
C3821      C3828   1.452       .  S
C3823      C3824   1.418       .  A
C3823      C3826   1.443   1_545  S
C3824      C3827   1.450       .  S
C3825      N3832   1.158       .  T
C3826      N3831   1.155       .  T
C3827      N3829   1.157   1_545  T
C3828      N3830   1.158       .  T
C3833      C3834   1.412       .  A
C3833      C3838   1.409       .  A
C3834      C3835   1.421       .  A
C3834      C3839   1.450       .  S
C3835      C3836   1.425       .  A
C3835      C3842   1.450       .  S
C3836      C3837   1.427       .  A
C3837      C3838   1.417       .  A
C3837      C3840   1.448       .  S
C3838      C3841   1.452       .  S
C3839      N3846   1.157       .  T
C3840      N3845   1.156       .  T
C3841      N3843   1.157       .  T
C3842      N3844   1.157       .  T
C3847      C3852   1.408       .  A
C3848      C3849   1.412       .  A
C3848      C3853   1.454       .  S
C3849      C3856   1.453       .  S
C3850      C3851   1.427       .  A
C3851      C3852   1.414       .  A
C3851      C3854   1.451       .  S
C3852      C3855   1.452       .  S
C3853      N3860   1.158       .  T
C3854      N3859   1.158       .  T
C3855      N3857   1.157       .  T
C3856      N3858   1.158       .  T
C3861      C3862   1.413       .  A
C3862      C3863   1.418       .  A
C3862      C3867   1.450       .  S
C3863      C3864   1.419       .  A
C3863      C3870   1.450       .  S
C3865      C3866   1.415       .  A
C3865      C3868   1.451       .  S
C3866      C3869   1.452       .  S
C3867      N3874   1.157       .  T
C3868      N3873   1.157       .  T
C3869      N3871   1.157       .  T
C3870      N3872   1.158       .  T
C3875      C3880   1.412       .  A
C3876      C3877   1.422       .  A
C3876      C3881   1.452   1_455  S
C3877      C3884   1.451       .  S
C3878      C3879   1.423       .  A
C3879      C3880   1.418       .  A
C3879      C3882   1.451       .  S
C3880      C3883   1.451       .  S
C3881      N3888   1.157       .  T
C3882      N3887   1.158       .  T
C3883      N3885   1.157       .  T
C3884      N3886   1.158   1_465  T
C3889      C3890   1.415       .  A
C3889      C3894   1.408       .  A
C3890      C3891   1.419       .  A
C3890      C3895   1.450       .  S
C3891      C3892   1.417       .  A
C3891      C3898   1.450       .  S
C3892      C3893   1.425       .  A
C3893      C3894   1.415       .  A
C3893      C3896   1.451       .  S
C3894      C3897   1.452       .  S
C3895      N3902   1.157       .  T
C3896      N3901   1.157       .  T
C3897      N3899   1.157       .  T
C3898      N3900   1.158       .  T
C3903      C3908   1.413       .  A
C3904      C3905   1.418       .  A
C3904      C3909   1.452       .  S
C3905      C3912   1.451       .  S
C3906      C3907   1.422       .  A
C3907      C3908   1.415       .  A
C3907      C3910   1.452       .  S
C3908      C3911   1.452       .  S
C3909      N3916   1.157       .  T
C3910      N3915   1.158       .  T
C3911      N3913   1.157       .  T
C3912      N3914   1.158       .  T
C3917      C3922   1.410       .  A
C3918      C3919   1.409       .  A
C3918      C3923   1.454       .  S
C3919      C3926   1.452       .  S
C3920      C3921   1.428       .  A
C3921      C3922   1.419       .  A
C3921      C3924   1.450       .  S
C3922      C3925   1.451       .  S
C3923      N3930   1.157       .  T
C3924      N3929   1.157       .  T
C3925      N3927   1.157       .  T
C3926      N3928   1.157       .  T
C3931      C3936   1.409       .  A
C3932      C3933   1.414   1_565  A
C3932      C3937   1.452       .  S
C3933      C3940   1.452   1_545  S
C3934      C3935   1.422       .  A
C3935      C3936   1.412       .  A
C3935      C3938   1.452       .  S
C3936      C3939   1.451       .  S
C3937      N3944   1.157       .  T
C3938      N3943   1.157       .  T
C3939      N3941   1.157       .  T
C3940      N3942   1.157       .  T
C3945      C3946   1.427       .  A
C3945      C3950   1.429       .  A
C3946      C3947   1.414       .  A
C3946      C3951   1.452       .  S
C3947      C3948   1.410       .  A
C3947      C3954   1.453       .  S
C3948      C3949   1.411       .  A
C3949      C3950   1.422       .  A
C3949      C3952   1.451       .  S
C3950      C3953   1.450       .  S
C3951      N3958   1.158       .  T
C3952      N3957   1.157       .  T
C3953      N3955   1.158       .  T
C3954      N3956   1.157       .  T
C3959      C3964   1.422       .  A
C3960      C3961   1.410       .  A
C3960      C3965   1.454       .  S
C3961      C3968   1.453       .  S
C3962      C3963   1.411       .  A
C3963      C3964   1.414       .  A
C3963      C3966   1.451       .  S
C3964      C3967   1.451       .  S
C3965      N3972   1.157       .  T
C3966      N3971   1.157       .  T
C3967      N3969   1.158       .  T
C3968      N3970   1.157       .  T
C3973      C3974   1.427       .  A
C3974      C3975   1.411       .  A
C3974      C3979   1.449       .  S
C3975      C3976   1.405       .  A
C3975      C3982   1.452       .  S
C3977      C3978   1.416       .  A
C3977      C3980   1.451       .  S
C3978      C3981   1.451       .  S
C3979      N3986   1.157       .  T
C3980      N3985   1.157       .  T
C3981      N3983   1.157       .  T
C3982      N3984   1.157       .  T
C3987      C3988   1.410       .  A
C3987      C3992   1.404       .  A
C3988      C3989   1.399       .  A
C3988      C3993   1.450       .  S
C3989      C3990   1.405       .  A
C3989      C3996   1.452       .  S
C3990      C3991   1.412       .  A
C3991      C3992   1.401       .  A
C3991      C3994   1.450       .  S
C3992      C3995   1.453       .  S
C3993      N4000   1.157       .  T
C3994      N3999   1.156       .  T
C3995      N3997   1.158       .  T
C3996      N3998   1.157       .  T
C4001      C4002   1.402       .  A
C4001      C4006   1.408       .  A
C4002      C4003   1.398       .  A
C4002      C4007   1.452       .  S
C4003      C4004   1.414       .  A
C4003      C4010   1.450       .  S
C4004      C4005   1.409       .  A
C4005      C4006   1.410       .  A
C4005      C4008   1.449       .  S
C4006      C4009   1.450       .  S
C4007      N4014   1.157       .  T
C4008      N4013   1.157       .  T
C4009      N4011   1.157       .  T
C4010      N4012   1.156       .  T
C4015      C4016   1.424       .  A
C4016      C4017   1.416       .  A
C4016      C4021   1.450       .  S
C4017      C4018   1.413       .  A
C4017      C4024   1.453       .  S
C4019      C4020   1.420       .  A
C4019      C4022   1.451       .  S
C4020      C4023   1.450       .  S
C4021      N4028   1.157       .  T
C4022      N4027   1.157       .  T
C4023      N4025   1.158       .  T
C4024      N4026   1.157       .  T
C4029      C4034   1.406       .  A
C4030      C4031   1.404       .  A
C4030      C4035   1.451       .  S
C4031      C4038   1.448       .  S
C4032      C4033   1.410       .  A
C4033      C4034   1.412       .  A
C4033      C4036   1.448       .  S
C4034      C4037   1.447       .  S
C4035      N4042   1.157       .  T
C4036      N4041   1.157   1_655  T
C4037      N4039   1.157       .  T
C4038      N4040   1.156       .  T
C4043      C4044   1.408       .  A
C4044      C4045   1.406       .  A
C4044      C4049   1.450       .  S
C4045      C4046   1.409       .  A
C4045      C4052   1.451       .  S
C4047      C4048   1.401       .  A
C4047      C4050   1.449       .  S
C4048      C4051   1.450       .  S
C4049      N4056   1.157       .  T
C4050      N4055   1.156       .  T
C4051      N4053   1.157       .  T
C4052      N4054   1.157       .  T
C4057      C4058   1.413       .  A
C4057      C4062   1.414       .  A
C4058      C4059   1.413       .  A
C4058      C4063   1.451       .  S
C4059      C4060   1.411       .  A
C4059      C4066   1.446       .  S
C4060      C4061   1.411       .  A
C4061      C4062   1.416       .  A
C4061      C4064   1.448       .  S
C4062      C4065   1.450       .  S
C4063      N4070   1.157       .  T
C4064      N4069   1.157       .  T
C4065      N4067   1.157       .  T
C4066      N4068   1.156       .  T
C4071      C4072   1.410       .  A
C4071      C4076   1.413       .  A
C4072      C4073   1.421       .  A
C4072      C4077   1.449       .  S
C4073      C4074   1.421       .  A
C4073      C4080   1.447       .  S
C4074      C4075   1.415       .  A
C4075      C4076   1.416       .  A
C4075      C4078   1.451       .  S
C4076      C4079   1.447       .  S
C4077      N4084   1.157       .  T
C4078      N4083   1.158       .  T
C4079      N4081   1.157       .  T
C4080      N4082   1.156       .  T
C4085      C4090   1.425       .  A
C4086      C4087   1.411       .  A
C4086      C4091   1.452       .  S
C4087      C4094   1.453       .  S
C4088      C4089   1.411       .  A
C4089      C4090   1.419       .  A
C4089      C4092   1.451       .  S
C4090      C4093   1.451       .  S
C4091      N4098   1.158       .  T
C4092      N4097   1.157       .  T
C4093      N4095   1.158       .  T
C4094      N4096   1.157       .  T
C4099      C4100   1.408       .  A
C4099      C4104   1.403       .  A
C4100      C4101   1.414       .  A
C4100      C4105   1.447       .  S
C4101      C4102   1.413       .  A
C4101      C4108   1.449       .  S
C4102      C4103   1.414       .  A
C4103      C4104   1.395       .  A
C4103      C4106   1.454       .  S
C4104      C4107   1.449       .  S
C4105      N4112   1.157       .  T
C4106      N4111   1.158       .  T
C4107      N4109   1.156       .  T
C4108      N4110   1.157       .  T
C4113      C4114   1.400       .  A
C4113      C4118   1.405       .  A
C4114      C4115   1.408       .  A
C4114      C4119   1.446       .  S
C4115      C4116   1.416       .  A
C4115      C4122   1.448       .  S
C4116      C4117   1.420       .  A
C4117      C4118   1.412       .  A
C4117      C4120   1.450       .  S
C4118      C4121   1.447       .  S
C4119      N4126   1.157       .  T
C4120      N4125   1.157       .  T
C4121      N4123   1.157       .  T
C4122      N4124   1.157       .  T
C4127      C4132   1.424       .  A
C4128      C4129   1.413       .  A
C4128      C4133   1.453       .  S
C4129      C4136   1.454       .  S
C4130      C4131   1.415       .  A
C4131      C4132   1.419       .  A
C4131      C4134   1.452       .  S
C4132      C4135   1.450       .  S
C4133      N4140   1.157       .  T
C4134      N4139   1.158       .  T
C4135      N4137   1.157       .  T
C4136      N4138   1.158       .  T
C4141      C4146   1.424       .  A
C4142      C4143   1.410       .  A
C4142      C4147   1.452       .  S
C4143      C4150   1.452       .  S
C4144      C4145   1.409       .  A
C4145      C4146   1.408       .  A
C4145      C4148   1.453       .  S
C4146      C4149   1.453       .  S
C4147      N4154   1.158       .  T
C4148      N4153   1.157       .  T
C4149      N4151   1.158       .  T
C4150      N4152   1.157       .  T
C4155      C4156   1.416       .  A
C4156      C4157   1.405       .  A
C4156      C4161   1.453   1_455  S
C4157      C4158   1.415       .  A
C4157      C4164   1.454   1_455  S
C4159      C4160   1.407       .  A
C4159      C4162   1.452       .  S
C4160      C4163   1.453       .  S
C4161      N4168   1.158       .  T
C4162      N4167   1.157       .  T
C4163      N4165   1.158       .  T
C4164      N4166   1.157       .  T
C4169      C4170   1.420       .  A
C4170      C4171   1.419       .  A
C4170      C4175   1.450       .  S
C4171      C4172   1.414       .  A
C4171      C4178   1.451       .  S
C4173      C4174   1.424       .  A
C4173      C4176   1.450       .  S
C4174      C4177   1.449       .  S
C4175      N4182   1.158       .  T
C4176      N4181   1.157       .  T
C4177      N4179   1.157       .  T
C4178      N4180   1.157       .  T
C4183      C4188   1.405       .  A
C4184      C4185   1.413       .  A
C4184      C4189   1.442       .  S
C4185      C4192   1.448       .  S
C4186      C4187   1.407       .  A
C4187      C4188   1.402       .  A
C4187      C4190   1.444       .  S
C4188      C4191   1.450       .  S
C4189      N4196   1.156       .  T
C4190      N4195   1.156       .  T
C4191      N4193   1.157       .  T
C4192      N4194   1.157       .  T
C4197      C4198   1.403       .  A
C4198      C4199   1.409       .  A
C4198      C4203   1.447       .  S
C4199      C4200   1.412       .  A
C4199      C4206   1.448       .  S
C4201      C4202   1.407       .  A
C4201      C4204   1.445       .  S
C4202      C4205   1.448       .  S
C4203      N4210   1.157       .  T
C4204      N4209   1.157       .  T
C4205      N4207   1.157       .  T
C4206      N4208   1.157       .  T
C4211      C4216   1.420       .  A
C4212      C4213   1.417       .  A
C4212      C4217   1.452       .  S
C4213      C4220   1.451       .  S
C4214      C4215   1.416       .  A
C4215      C4216   1.422       .  A
C4215      C4218   1.446       .  S
C4216      C4219   1.451       .  S
C4217      N4224   1.157       .  T
C4218      N4223   1.156       .  T
C4219      N4221   1.157       .  T
C4220      N4222   1.157       .  T
