geometry optimzed in LAMMPS
_audit_creation_date              2020-11-30 
_audit_creation_method            'lammps2cif' 
_symmetry_space_group_name_H-M    'P1' 
_symmetry_Int_Tables_number       1 
_symmetry_cell_setting            triclinic 
loop_ 
_symmetry_equiv_pos_as_xyz 
  x,y,z 
_cell_length_a                    23.18421763 
_cell_length_b                    23.856906774117036 
_cell_length_c                    23.6113194931628 
_cell_angle_alpha                 87.09988136356478 
_cell_angle_beta                  85.71543342847094 
_cell_angle_gamma                 86.31787435064346 
loop_ 
_atom_site_label 
_atom_site_type_symbol 
_atom_site_fract_x 
_atom_site_fract_y 
_atom_site_fract_z 
_atom_site_charge 
C1          C  0.10861236  0.88226588  0.00864816     0.79600
N2          N  0.13782300  0.86416426  0.96059921    -0.78700
C3          C  0.19470954  0.84714437  0.95938296     0.82000
N4          N  0.22307848  0.84820572  0.00818410    -0.78700
C5          C  0.19316094  0.86326910  0.05796040     0.82100
N6          N  0.13627489  0.88070632  0.05742275    -0.80400
C7          C  0.71609306  0.20896595  0.00661879     0.79600
N8          N  0.74969063  0.23134326  0.96298036    -0.78700
C9          C  0.78220471  0.27516666  0.97126760     0.82000
N10         N  0.78136129  0.29656977  0.02302945    -0.78700
C11         C  0.74927205  0.27313166  0.06691498     0.82100
N12         N  0.71530201  0.23053179  0.05867377    -0.80400
C13         C  0.93113344  0.06658740  0.28562421     0.79600
N14         N  0.89935795  0.02169293  0.27934278    -0.78700
C15         C  0.84486361  0.02939392  0.26110658     0.82000
N16         N  0.82043143  0.08291657  0.25359853    -0.78700
C17         C  0.85275690  0.12790215  0.25941586     0.82100
N18         N  0.90749789  0.11867761  0.27434086    -0.80400
C19         C  0.20639122  0.05313257  0.67513825     0.79600
N20         N  0.20590362  0.00730989  0.71063251    -0.78700
C21         C  0.22279307  0.00883225  0.76411631     0.82000
N22         N  0.24034081  0.05671253  0.78313257    -0.78700
C23         C  0.23813884  0.10335079  0.74847412     0.82100
N24         N  0.22185891  0.10176267  0.69480568    -0.80400
C25         C  0.04691821  0.75288359  0.14224650     0.79600
N26         N  0.99070888  0.77131350  0.14443797    -0.78700
C27         C  0.96764046  0.80341310  0.18678947     0.82000
N28         N  0.00166687  0.81756622  0.22792923    -0.78700
C29         C  0.05870096  0.79906335  0.22532777     0.82100
N30         N  0.08102532  0.76656720  0.18256989    -0.80400
C31         C  0.01570200  0.44749049  0.79298427     0.79600
N32         N  0.06583907  0.41603373  0.78873632    -0.78700
C33         C  0.06887411  0.35934553  0.78608558     0.82000
N34         N  0.01697404  0.33254300  0.78729743    -0.78700
C35         C  0.96524394  0.36566284  0.78373860     0.82100
N36         N  0.96697138  0.42219903  0.78545397    -0.80400
C37         C  0.66719564  0.88828067  0.00931110     0.79600
N38         N  0.69490995  0.87714983  0.05795451    -0.78700
C39         C  0.74499861  0.84412055  0.05853070     0.82000
N40         N  0.76813797  0.82247061  0.00733954    -0.78700
C41         C  0.74169302  0.83624770  0.95697770     0.82100
N42         N  0.69181816  0.86880517  0.95959672    -0.80400
C43         C  0.10714941  0.21541108  0.03915970     0.79600
N44         N  0.13266314  0.23230618  0.08472984    -0.78700
C45         C  0.18053684  0.26213373  0.07751890     0.82000
N46         N  0.20327960  0.27540247  0.02470536    -0.78700
C47         C  0.17858885  0.25909177  0.97871532     0.82100
N48         N  0.13065695  0.22839472  0.98567772    -0.80400
C49         C  0.89343670  0.08851633  0.68333397     0.79600
N50         N  0.87076618  0.03733636  0.68924269    -0.78700
C51         C  0.83212061  0.02568138  0.73363932     0.82000
N52         N  0.81451893  0.06576208  0.77111373    -0.78700
C53         C  0.83794366  0.11651653  0.76506109     0.82100
N54         N  0.87658850  0.12738139  0.72125479    -0.80400
C55         C  0.26640914  0.05835620  0.34112207     0.79600
N56         N  0.26709823  0.10942567  0.31350744    -0.78700
C57         C  0.26311422  0.11684142  0.25718479     0.82000
N58         N  0.26025623  0.06875326  0.22581552    -0.78700
C59         C  0.25865346  0.01548637  0.25405207     0.82100
N60         N  0.26132183  0.01227179  0.31116763    -0.80400
C61         C  0.01856719  0.69951561  0.79857340     0.79600
N62         N  0.96800335  0.72860646  0.81050592    -0.78700
C63         C  0.95966915  0.78326208  0.79411731     0.82000
N64         N  0.00333686  0.81096216  0.76608720    -0.78700
C65         C  0.05436185  0.78177953  0.75257102     0.82100
N66         N  0.06149160  0.72662649  0.76876820    -0.80400
C67         C  0.99795506  0.39111539  0.18166596     0.79600
N68         N  0.94633611  0.37334492  0.20402072    -0.78700
C69         C  0.94226014  0.34429461  0.25515073     0.82000
N70         N  0.99134854  0.33198718  0.28362600    -0.78700
C71         C  0.04357201  0.34940402  0.26043161     0.82100
N72         N  0.04617369  0.37855061  0.20968980    -0.80400
C73         C  0.30578017  0.55484599  0.87031917     0.79600
N74         N  0.30471757  0.60138927  0.83505497    -0.78700
C75         C  0.29577546  0.59818134  0.77923326     0.82000
N76         N  0.28865098  0.54793773  0.75756277    -0.78700
C77         C  0.29293018  0.50113967  0.79224063     0.82100
N78         N  0.29996426  0.50482063  0.84817846    -0.80400
C79         C  0.25030083  0.57983095  0.18622106     0.79600
N80         N  0.25231688  0.52801087  0.21308344    -0.78700
C81         C  0.25119776  0.52107487  0.27052583     0.82000
N82         N  0.24840429  0.56950699  0.30239055    -0.78700
C83         C  0.24868009  0.62299945  0.27487100     0.82100
N84         N  0.24906541  0.62596666  0.21766645    -0.80400
C85         C  0.38161326  0.42520914  0.51412745     0.79600
N86         N  0.36032271  0.41178192  0.46495096    -0.78700
C87         C  0.32729617  0.36715866  0.46346853     0.82000
N88         N  0.31537516  0.33506506  0.51229367    -0.78700
C89         C  0.33885628  0.34781731  0.56115880     0.82100
N90         N  0.37026077  0.39318810  0.56131359    -0.80400
O91         O  0.23279002  0.42878919  0.78801499    -0.81500
O92         O  0.21104477  0.18965430  0.78570384    -0.66200
O93         O  0.27185855  0.32563960  0.81596765    -1.12800
C94         C  0.32566746  0.32034351  0.61693285     1.05400
O95         O  0.30278979  0.17145453  0.75673709    -0.79400
O96         O  0.38866972  0.23481765  0.70874853    -0.67000
Ni97       Ni  0.22621250  0.38063874  0.85465593     1.34900
C98         C  0.41275698  0.27417164  0.73072018     0.84100
O99         O  0.20225393  0.24906889  0.88017382    -0.79900
O100        O  0.21793031  0.33047597  0.91987836    -0.90200
C101        C  0.25190157  0.15560412  0.76811170     0.83700
O102        O  0.14994521  0.36546954  0.83706225    -0.68400
O103        O  0.32062154  0.26707888  0.62176074    -0.87700
C104        C  0.12788618  0.33508811  0.80277036     0.84500
C105        C  0.20109813  0.28029175  0.92283756     1.06100
H106        H  0.23536709  0.28378773  0.70299139     0.37900
O107        O  0.26729254  0.27453563  0.72655362    -1.10400
O108        O  0.38203797  0.31582050  0.75172967    -0.67000
Ni109      Ni  0.30015688  0.34203662  0.73818672     1.26300
O110        O  0.15804617  0.29387158  0.78039967    -0.67300
O111        O  0.32282879  0.35284267  0.65902369    -0.79500
C112        C  0.28165152  0.44733591  0.77322718     0.83900
O113        O  0.32225200  0.41483447  0.75259402    -0.66700
Ni114      Ni  0.31275542  0.21838772  0.68960363     1.27400
Ni115      Ni  0.23471157  0.26000253  0.80270954     1.26100
H116        H  0.30469726  0.31496440  0.83794766     0.38400
C117        C  0.61427859  0.37021726  0.53579455     0.79600
N118        N  0.64618821  0.36963716  0.48561428    -0.78700
C119        C  0.69899784  0.34191838  0.48063257     0.82000
N120        N  0.72123040  0.31511622  0.52719317    -0.78700
C121        C  0.68823761  0.31389754  0.57739306     0.82100
N122        N  0.63527605  0.34094271  0.58100536    -0.80400
C123        C  0.54923365  0.23607412  0.64907627     0.79600
N124        N  0.49392449  0.24665538  0.66833537    -0.78700
C125        C  0.47863984  0.27128891  0.71810833     0.82000
N126        N  0.52281128  0.28717759  0.75012901    -0.78700
C127        C  0.58062177  0.27634594  0.72953578     0.82100
N128        N  0.59179005  0.25019705  0.67994686    -0.80400
O129        O  0.75893743  0.17632794  0.79317927    -0.81500
O130        O  0.71679362  0.42637561  0.73445824    -0.66200
O131        O  0.78068370  0.27425782  0.73457081    -1.12800
C132        C  0.80535928  0.30628031  0.92187830     1.05400
O133        O  0.79162103  0.45223668  0.77763205    -0.79400
O134        O  0.87360023  0.38285670  0.83008162    -0.67000
Ni135      Ni  0.73279588  0.21456479  0.72533949     1.34900
C136        C  0.90403311  0.34825000  0.79873288     0.84100
O137        O  0.73304370  0.34351199  0.65431309    -0.79900
O138        O  0.70807514  0.25236726  0.65537403    -0.90200
C139        C  0.74344500  0.46465340  0.75600383     0.83700
O140        O  0.66617014  0.24280503  0.77152002    -0.68400
O141        O  0.79000566  0.35839237  0.91526944    -0.87700
C142        C  0.63580843  0.28630677  0.75712495     0.84500
C143        C  0.71377739  0.30147983  0.63111117     1.06100
H144        H  0.72504241  0.33697313  0.83286642     0.37900
O145        O  0.76096909  0.34453059  0.81121435    -1.10400
O146        O  0.88119211  0.30668709  0.77877769    -0.67000
Ni147      Ni  0.80751714  0.27540101  0.80879403     1.26300
O148        O  0.66139807  0.33193197  0.74550110    -0.67300
O149        O  0.83186525  0.27798371  0.88318720    -0.79500
C150        C  0.81285506  0.16461091  0.79441114     0.83900
O151        O  0.84552838  0.20324830  0.80339098    -0.66700
Ni152      Ni  0.79258682  0.40420398  0.84600783     1.27400
Ni153      Ni  0.74513456  0.34839819  0.73276439     1.26100
H154        H  0.81335499  0.27207295  0.70665508     0.38400
C155        C  0.39544906  0.78296116  0.51899933     0.79600
N156        N  0.36586435  0.77905983  0.47204677    -0.78700
C157        C  0.30712139  0.77667346  0.47581956     0.82000
N158        N  0.27766417  0.77520311  0.52877936    -0.78700
C159        C  0.30725921  0.78028441  0.57658464     0.82100
N160        N  0.36492244  0.78593530  0.57025822    -0.80400
O161        O  0.14149858  0.79415700  0.69806767    -0.81500
O162        O  0.38939140  0.77283195  0.75763546    -0.66200
O163        O  0.22503825  0.76275190  0.76916581    -1.12800
C164        C  0.23242206  0.95588367  0.79380901     1.05400
O165        O  0.37259645  0.80954036  0.83978669    -0.79400
O166        O  0.27774968  0.85784528  0.89656920    -0.67000
Ni167      Ni  0.18791833  0.72698259  0.71225010     1.34900
C168        C  0.22606542  0.84328478  0.90238324     0.84100
O169        O  0.31961764  0.68783965  0.75188128    -0.79900
O170        O  0.23364823  0.65888438  0.72844637    -0.90200
C171        C  0.40758078  0.79961950  0.79713660     0.83700
O172        O  0.23494652  0.74527808  0.64420235    -0.68400
O173        O  0.27993574  0.94621740  0.81799387    -0.87700
C174        C  0.28209382  0.76945427  0.63627651     0.84500
C175        C  0.28360670  0.65044423  0.74801232     1.06100
H176        H  0.30011467  0.86471216  0.73701000     0.37900
O177        O  0.28966935  0.84436091  0.77179728    -1.10400
O178        O  0.19776239  0.83223817  0.86026221    -0.67000
Ni179      Ni  0.20837942  0.84165633  0.77772351     1.26300
O180        O  0.31134640  0.78123722  0.67774796    -0.67300
O181        O  0.19726487  0.91952389  0.78371755    -0.79500
C182        C  0.10699492  0.81055493  0.73871654     0.83900
O183        O  0.12656564  0.83636252  0.77800232    -0.66700
Ni184      Ni  0.32615555  0.87756370  0.83043152     1.27400
Ni185      Ni  0.30680917  0.76600679  0.76041912     1.26100
H186        H  0.21525592  0.74325997  0.80515854     0.38400
C187        C  0.62771974  0.56387338  0.81187684     0.79600
N188        N  0.64881456  0.61457071  0.79809739    -0.78700
C189        C  0.70137191  0.61893844  0.77023038     0.82000
N190        N  0.73426159  0.57066964  0.75678142    -0.78700
C191        C  0.71137786  0.51912572  0.76793690     0.82100
N192        N  0.65864982  0.51639186  0.79661796    -0.80400
C193        C  0.45960443  0.93431961  0.74472552     0.79600
N194        N  0.42759216  0.89420087  0.77120065    -0.78700
C195        C  0.44993712  0.84102756  0.78036148     0.82000
N196        N  0.50647736  0.82704727  0.76359717    -0.78700
C197        C  0.53995528  0.86788370  0.73877247     0.82100
N198        N  0.51575199  0.92056544  0.72868551    -0.80400
C199        C  0.69639990  0.74243417  0.51624075     0.79600
N200        N  0.71149644  0.76584180  0.56280918    -0.78700
C201        C  0.72761051  0.81893018  0.56180788     0.82000
N202        N  0.73067991  0.84956423  0.50927923    -0.78700
C203        C  0.72032462  0.82281335  0.45960784     0.82100
N204        N  0.70213160  0.77006303  0.46530059    -0.80400
O205        O  0.78213642  0.95568618  0.69518567    -0.81500
O206        O  0.70441118  0.71628804  0.74034283    -0.62600
O207        O  0.72294173  0.87265754  0.76093610    -1.12800
C208        C  0.90313157  0.80955245  0.80873550     1.05400
O209        O  0.76252016  0.67984813  0.80718626    -0.79400
O210        O  0.76344137  0.76788449  0.88405804    -0.67000
Ni211      Ni  0.70548633  0.92813413  0.70226472     1.34900
C212        C  0.76500378  0.81900772  0.89778916     0.84100
O213        O  0.63015620  0.81228660  0.73912351    -0.79900
O214        O  0.62807150  0.90428716  0.70923142    -0.90200
C215        C  0.72580818  0.67468577  0.77042508     0.83700
O216        O  0.72127316  0.89177290  0.63085354    -0.68400
O217        O  0.87045205  0.78425292  0.84501215    -0.87700
C218        C  0.72841527  0.83990784  0.62186079     0.84500
C219        C  0.60315862  0.85969751  0.72719391     1.06100
H220        H  0.81535910  0.77544061  0.72817851     0.37900
O221        O  0.79267227  0.78575640  0.76249765    -1.10400
O222        O  0.78214037  0.85741371  0.86044027    -0.67000
Ni223      Ni  0.80177512  0.86331410  0.77569438     1.26300
O224        O  0.72925012  0.80252553  0.66373856    -0.67300
O225        O  0.88344084  0.85185552  0.78090145    -0.79500
C226        C  0.80568551  0.97206610  0.73784500     0.83900
O227        O  0.80771554  0.94147728  0.78306348    -0.66700
Ni228      Ni  0.81488314  0.73508464  0.82458317     1.27400
Ni229      Ni  0.71220589  0.79626703  0.74781746     1.26100
H230        H  0.70039171  0.88284331  0.79542572     0.38400
C231        C  0.54107752  0.21999058  0.29067660     0.79600
N232        N  0.48717874  0.23556085  0.27518993    -0.78700
C233        C  0.47330873  0.28863859  0.25510035     0.82000
N234        N  0.51456706  0.32728332  0.24901107    -0.78700
C235        C  0.56915705  0.31162865  0.26426790     0.82100
N236        N  0.58140961  0.25870175  0.28572920    -0.80400
O237        O  0.70144584  0.32702507  0.13728082    -0.81500
O238        O  0.70283521  0.36663356  0.38428512    -0.66200
O239        O  0.75237398  0.36884537  0.22900918    -1.12800
C240        C  0.82706927  0.18505186  0.26878550     1.05400
O241        O  0.78132411  0.32007808  0.41689574    -0.79400
O242        O  0.86937990  0.31640851  0.32721960    -0.67000
Ni243      Ni  0.69920436  0.39716185  0.17444690     1.34900
C244        C  0.88562134  0.32129501  0.27438826     0.84100
O245        O  0.69748641  0.44950059  0.30175655    -0.79900
O246        O  0.69317556  0.46910964  0.20773074    -0.90200
C247        C  0.73003001  0.34272848  0.42439800     0.83700
O248        O  0.62620232  0.37756061  0.21151059    -0.68400
O249        O  0.84293362  0.20834031  0.31211532    -0.87700
C250        C  0.61737349  0.34865717  0.25734712     0.84500
C251        C  0.68822359  0.48371826  0.25914888     1.06100
H252        H  0.72283208  0.26983283  0.31821414     0.37900
O253        O  0.75416349  0.29276244  0.30941193    -1.10400
O254        O  0.85466190  0.30694341  0.23545873    -0.67000
Ni255      Ni  0.77427835  0.28995022  0.23072516     1.26300
O256        O  0.65293605  0.34379401  0.29564386    -0.67300
O257        O  0.79360289  0.21018091  0.23428295    -0.79500
C258        C  0.74684440  0.29803656  0.12108610     0.83900
O259        O  0.78948600  0.28994637  0.15129545    -0.66700
Ni260      Ni  0.81145013  0.26756117  0.36023489     1.27400
Ni261      Ni  0.72682883  0.37071351  0.30663574     1.26100
H262        H  0.78656860  0.39015291  0.22284200     0.38400
C263        C  0.45704188  0.90709293  0.38459333     0.79600
N264        N  0.42011567  0.88180996  0.35306666    -0.78700
C265        C  0.44121414  0.85517591  0.30502004     0.82000
N266        N  0.49900946  0.85326395  0.28932027    -0.78700
C267        C  0.53512649  0.87910115  0.32095131     0.82100
N268        N  0.51357960  0.90679992  0.36681323    -0.80400
C269        C  0.57808761  0.60070131  0.25554637     0.79600
N270        N  0.60446145  0.54857488  0.26058599    -0.78700
C271        C  0.66191508  0.54107693  0.26798233     0.82000
N272        N  0.69419122  0.58734353  0.26758335    -0.78700
C273        C  0.66728464  0.64033560  0.26481761     0.82100
N274        N  0.60974934  0.64623408  0.25785033    -0.80400
O275        O  0.73306808  0.69861388  0.21249910    -0.81500
O276        O  0.81180642  0.94885049  0.21977876    -0.66200
O277        O  0.78330837  0.79352739  0.25391051    -1.12800
C278        C  0.59772335  0.87523840  0.31004323     1.05400
O279        O  0.77961455  0.96743557  0.30823959    -0.79400
O280        O  0.71720290  0.89971417  0.38616589    -0.67000
Ni281      Ni  0.80380509  0.73751152  0.19853160     1.34900
C282        C  0.72038264  0.84706446  0.39807877     0.84100
O283        O  0.87921311  0.85356521  0.21329327    -0.79900
O284        O  0.87859445  0.76620358  0.18257515    -0.90200
C285        C  0.80908799  0.98030678  0.26215705     0.83700
O286        O  0.77547643  0.77657791  0.13119189    -0.68400
O287        O  0.62393279  0.91882723  0.32012528    -0.87700
C288        C  0.76892449  0.82862738  0.11662797     0.84500
C289        C  0.90464411  0.80902152  0.19431595     1.06100
H290        H  0.69861862  0.89709344  0.22522654     0.37900
O291        O  0.71993070  0.88483706  0.25775093    -1.10400
O292        O  0.71861525  0.81144328  0.35879027    -0.67000
Ni293      Ni  0.70336181  0.80904308  0.27739312     1.26300
O294        O  0.77741447  0.86726864  0.15148657    -0.67300
O295        O  0.62289996  0.82866001  0.29489420    -0.79500
C296        C  0.70007276  0.69181800  0.25764831     0.83900
O297        O  0.68919687  0.73066114  0.29281645    -0.66700
Ni298      Ni  0.70256336  0.94008891  0.31398939     1.27400
Ni299      Ni  0.79870844  0.87014932  0.23252630     1.26100
H300        H  0.80397943  0.78254078  0.28717955     0.38400
O301        O  0.11689402  0.77142076  0.30015171    -0.81500
O302        O  0.37810226  0.78855207  0.27695653    -0.66200
O303        O  0.21959267  0.81979887  0.31359911    -1.12800
C304        C  0.22140590  0.86313352  0.11245099     1.05400
O305        O  0.38139810  0.87233530  0.23035227    -0.79400
O306        O  0.29545043  0.94267001  0.19050565    -0.67000
Ni307      Ni  0.17178775  0.77012027  0.35893009     1.34900
C308        C  0.25595792  0.95811850  0.22791606     0.84100
O309        O  0.31153876  0.77995660  0.37538089    -0.79900
O310        O  0.22353925  0.77006950  0.42096826    -0.90200
C311        C  0.40065259  0.83579742  0.26682779     0.83700
O312        O  0.20363778  0.69602924  0.33496044    -0.68400
O313        O  0.27672076  0.86298522  0.11144406    -0.87700
C314        C  0.24731127  0.68085041  0.30182161     0.84500
C315        C  0.27841176  0.77490193  0.42112796     1.06100
H316        H  0.28022060  0.78495914  0.19942238     0.37900
O317        O  0.28075977  0.81909748  0.21967746    -1.10400
O318        O  0.22007922  0.92266097  0.25106039    -0.67000
Ni319      Ni  0.20332961  0.84353722  0.23717101     1.26300
O320        O  0.28505969  0.71668549  0.28324829    -0.67300
O321        O  0.18846717  0.86295308  0.15864515    -0.79500
C322        C  0.09793259  0.81213284  0.26751668     0.83900
O323        O  0.12389599  0.85752450  0.25961436    -0.66700
Ni324      Ni  0.32803333  0.86750061  0.17205606     1.27400
Ni325      Ni  0.29745427  0.79746037  0.29676118     1.26100
H326        H  0.21915737  0.85336591  0.33494597     0.38400
O327        O  0.38757737  0.26174005  0.22181318    -0.81500
O328        O  0.12789106  0.29064324  0.27722682    -0.66200
O329        O  0.28062248  0.31871312  0.21799259    -1.12800
C330        C  0.29723084  0.36147995  0.41153022     1.05400
O331        O  0.12218317  0.37756161  0.30861822    -0.79400
O332        O  0.21070874  0.44566934  0.33093239    -0.67000
Ni333      Ni  0.32603905  0.26782970  0.17122470     1.34900
C334        C  0.25115348  0.45948984  0.29426893     0.84100
O335        O  0.18316264  0.27980992  0.17360611    -0.79900
O336        O  0.26708149  0.27320295  0.11853105    -0.90200
C337        C  0.09882450  0.33693168  0.28715875     0.83700
O338        O  0.30071620  0.19400930  0.19795300    -0.68400
O339        O  0.24179828  0.36728937  0.41574879    -0.87700
C340        C  0.26189490  0.17897431  0.23565155     0.84500
C341        C  0.21197965  0.27317071  0.12606911     1.06100
H342        H  0.23500106  0.28653882  0.34062347     0.37900
O343        O  0.23079855  0.32037148  0.31665467    -1.10400
O344        O  0.28741935  0.42137899  0.27224285    -0.67000
Ni345      Ni  0.30619139  0.33908044  0.28944184     1.26300
O346        O  0.22740535  0.21639218  0.26158053    -0.67300
O347        O  0.32782922  0.35529895  0.36434204    -0.79500
C348        C  0.41287121  0.30148541  0.24216243     0.83900
O349        O  0.38488299  0.34647359  0.25856473    -0.66700
Ni350      Ni  0.18392111  0.37286337  0.36066211     1.27400
Ni351      Ni  0.20591085  0.29863478  0.24598959     1.26100
H352        H  0.27548782  0.35307502  0.19490575     0.38400
C353        C  0.43994322  0.92950894  0.44120553    -0.12600
C354        C  0.47737264  0.91824018  0.48586904     0.02900
C355        C  0.46543984  0.94348006  0.53730748    -0.13100
C356        C  0.41816227  0.98191212  0.54582026     0.17700
C357        C  0.38069686  0.99403216  0.50231459    -0.10200
C358        C  0.39101949  0.96724540  0.45020348    -0.03100
H359        H  0.49379677  0.93312680  0.57132415     0.04300
C360        C  0.40752685  0.00368367  0.60323483     0.19700
H361        H  0.36280269  0.97776968  0.41621074     0.09400
C362        C  0.45212267  0.03123190  0.62564658    -0.16500
C363        C  0.46240932  0.02209002  0.68315463     0.02400
C364        C  0.42944486  0.98344627  0.71628225    -0.11800
C365        C  0.37467331  0.97363302  0.69863025    -0.01800
C366        C  0.36510971  0.97972277  0.64109973    -0.07000
H367        H  0.48341227  0.05274926  0.59743156     0.05400
H368        H  0.34580634  0.94836380  0.72539220     0.08800
Br369      Br  0.31836121  0.04959230  0.51415060    -0.06700
Br370      Br  0.54742765  0.87016753  0.48113171    -0.03700
Br371      Br  0.52651957  0.05470996  0.71300514    -0.00800
Br372      Br  0.30378879  0.93901819  0.61582203    -0.05200
C373        C  0.56189282  0.21134157  0.59367598    -0.12600
C374        C  0.53586005  0.23622836  0.54608427     0.02900
C375        C  0.54104171  0.20920278  0.49551761    -0.13100
C376        C  0.56861747  0.15538266  0.49166070     0.17700
C377        C  0.59920184  0.13206913  0.53739630    -0.10200
C378        C  0.59577012  0.16044401  0.58845840    -0.03100
H379        H  0.52063422  0.22936634  0.45930006     0.04300
C380        C  0.56465893  0.12804499  0.43759372     0.19700
H381        H  0.61705620  0.14158324  0.62468797     0.09400
C382        C  0.61330350  0.12960274  0.39888478    -0.16500
C383        C  0.60660027  0.14994367  0.34304386     0.02400
C384        C  0.55075339  0.16805925  0.32680431    -0.11800
C385        C  0.50273422  0.14905303  0.36034680    -0.01800
C386        C  0.50936950  0.12899798  0.41604385    -0.07000
H387        H  0.65641984  0.12516635  0.41397180     0.05400
H388        H  0.45917044  0.15923892  0.34775618     0.08800
Br389      Br  0.64435983  0.06207577  0.53214131    -0.06700
Br390      Br  0.48999483  0.30583859  0.54741793    -0.03700
Br391      Br  0.67488964  0.15803322  0.29347148    -0.00800
Br392      Br  0.44031596  0.12564031  0.46581072    -0.05200
C393        C  0.57570342  0.42030436  0.54673618    -0.12600
C394        C  0.55499838  0.45333276  0.50050053     0.02900
C395        C  0.56104522  0.51107036  0.49836172    -0.13100
C396        C  0.58744017  0.53533239  0.54184176     0.17700
C397        C  0.59721351  0.50372097  0.59248003    -0.10200
C398        C  0.58656668  0.44721586  0.59607747    -0.03100
H399        H  0.54974413  0.53618053  0.46080751     0.04300
C400        C  0.61048975  0.59070733  0.53153545     0.19700
H401        H  0.59912684  0.42297882  0.63373154     0.09400
C402        C  0.59609315  0.63181728  0.57121852    -0.16500
C403        C  0.62405847  0.68161159  0.56761312     0.02400
C404        C  0.66603001  0.69108055  0.52221004    -0.11800
C405        C  0.67798576  0.65150424  0.48075431    -0.01800
C406        C  0.65148691  0.60090682  0.48560713    -0.07000
H407        H  0.56448334  0.62410170  0.60643786     0.05400
H408        H  0.70999492  0.65895934  0.44577038     0.08800
Br409      Br  0.63797150  0.53060542  0.65234164    -0.06700
Br410      Br  0.52672110  0.42106096  0.43606392    -0.03700
Br411      Br  0.60184617  0.73435483  0.62567242    -0.00800
Br412      Br  0.67802922  0.54581311  0.43142882    -0.05200
C413        C  0.40570499  0.48003025  0.51915907    -0.12600
C414        C  0.43326906  0.49454734  0.56762711     0.02900
C415        C  0.45175669  0.54875415  0.57016646    -0.13100
C416        C  0.44022188  0.59004655  0.52747730     0.17700
C417        C  0.40790361  0.57643063  0.48210766    -0.10200
C418        C  0.39379885  0.52157917  0.47703790    -0.03100
H419        H  0.47688639  0.55791590  0.60497780     0.04300
C420        C  0.46308747  0.64628798  0.52911310     0.19700
H421        H  0.36977929  0.51254055  0.44128706     0.09400
C422        C  0.48470594  0.67224066  0.47795660    -0.16500
C423        C  0.48086605  0.73075545  0.47222912     0.02400
C424        C  0.45754267  0.76140877  0.51905383    -0.11800
C425        C  0.46932768  0.73542288  0.57194518    -0.01800
C426        C  0.45874582  0.67826190  0.57838614    -0.07000
H427        H  0.49621634  0.64784682  0.44083290     0.05400
H428        H  0.46279404  0.76008820  0.60947556     0.08800
Br429      Br  0.37471591  0.63064680  0.42871622    -0.06700
Br430      Br  0.44833062  0.44405195  0.63199516    -0.03700
Br431      Br  0.49471626  0.76341501  0.39815286    -0.00800
Br432      Br  0.42285524  0.65348760  0.65009976    -0.05200
C433        C  0.26717587  0.58597288  0.12410542    -0.12600
C434        C  0.28706189  0.63914340  0.10683976     0.02900
C435        C  0.34631939  0.64554992  0.11049397    -0.13100
C436        C  0.38346132  0.59731098  0.11986891     0.17700
C437        C  0.36278316  0.54415044  0.11014653    -0.10200
C438        C  0.30337471  0.54049090  0.10498211    -0.03100
H439        H  0.36081702  0.68724184  0.11477167     0.04300
C440        C  0.43252599  0.60148295  0.15585785     0.19700
H441        H  0.28653389  0.49911911  0.10566690     0.09400
C442        C  0.43121733  0.57164621  0.20899214    -0.16500
C443        C  0.47599177  0.57418833  0.24514239     0.02400
C444        C  0.52292471  0.60717070  0.22836850    -0.11800
C445        C  0.52164327  0.64060235  0.17794461    -0.01800
C446        C  0.47700979  0.63836011  0.14206454    -0.07000
H447        H  0.39499192  0.54644468  0.22258604     0.05400
H448        H  0.55734514  0.66655709  0.16462740     0.08800
Br449      Br  0.40976701  0.47520691  0.11675647    -0.06700
Br450      Br  0.23475618  0.70482318  0.10872314    -0.03700
Br451      Br  0.46960928  0.53494303  0.31801122    -0.00800
Br452      Br  0.48207989  0.68522469  0.07442146    -0.05200
C453        C  0.57613474  0.56157602  0.85077175    -0.12600
C454        C  0.52413086  0.58865491  0.83510770     0.02900
C455        C  0.47776175  0.59474389  0.87527015    -0.13100
C456        C  0.48288560  0.57646395  0.93245911     0.17700
C457        C  0.53548133  0.54964905  0.94840134    -0.10200
C458        C  0.58155563  0.54159974  0.90722640    -0.03100
H459        H  0.43698904  0.61301288  0.86119191     0.04300
C460        C  0.42880855  0.57487043  0.96943347     0.19700
H461        H  0.62252402  0.52231787  0.91980060     0.09400
C462        C  0.40765085  0.52101322  0.97631304    -0.16500
C463        C  0.35538465  0.51157929  0.95383079     0.02400
C464        C  0.32412042  0.55800305  0.92872788    -0.11800
C465        C  0.33406195  0.61176222  0.94613167    -0.01800
C466        C  0.38789958  0.62109790  0.96505543    -0.07000
H467        H  0.43700928  0.48492465  0.98485740     0.05400
H468        H  0.30796893  0.64804599  0.93151109     0.08800
Br469      Br  0.54692614  0.52625779  0.02589053    -0.06700
Br470      Br  0.51480420  0.61820149  0.75922490    -0.03700
Br471      Br  0.33879524  0.43454244  0.94570469    -0.00800
Br472      Br  0.41065200  0.69716042  0.95649700    -0.05200
C473        C  0.01129658  0.49207352  0.83551672    -0.12600
C474        C  0.06207124  0.50393649  0.86085465     0.02900
C475        C  0.06273499  0.50045064  0.92026417    -0.13100
C476        C  0.01168978  0.49042059  0.95431187     0.17700
C477        C  0.95865947  0.49302782  0.92850444    -0.10200
C478        C  0.95862882  0.49724721  0.86926934    -0.03100
H479        H  0.10348529  0.50190473  0.93963807     0.04300
C480        C  0.01477944  0.46893687  0.01405453     0.19700
H481        H  0.91796035  0.49297052  0.85057128     0.09400
C482        C  0.98470140  0.49825648  0.05839492    -0.16500
C483        C  0.97795579  0.47325267  0.11332155     0.02400
C484        C  0.00331141  0.41908187  0.12478560    -0.11800
C485        C  0.03577921  0.39100840  0.08128358    -0.01800
C486        C  0.04085563  0.41505275  0.02614252    -0.07000
H487        H  0.96429045  0.53959656  0.04966007     0.05400
H488        H  0.05545378  0.34925940  0.08979640     0.08800
Br489      Br  0.88652457  0.47919693  0.97079468    -0.06700
Br490      Br  0.13295804  0.51449603  0.81543087    -0.03700
Br491      Br  0.93387903  0.51423289  0.17131942    -0.00800
Br492      Br  0.07887760  0.37018086  0.96785253    -0.05200
C493        C  0.06999108  0.72188886  0.09363411    -0.12600
C494        C  0.08167038  0.66324814  0.09703156     0.02900
C495        C  0.08765021  0.63374708  0.04707990    -0.13100
C496        C  0.08209493  0.66279923  0.99460036     0.17700
C497        C  0.07349396  0.72183284  0.99151071    -0.10200
C498        C  0.06702591  0.75048581  0.04103389    -0.03100
H499        H  0.09250401  0.58822587  0.04935481     0.04300
C500        C  0.07279084  0.63280473  0.94434978     0.19700
H501        H  0.05369839  0.79462238  0.03891576     0.09400
C502        C  0.01491437  0.62434023  0.93619348    -0.16500
C503        C  0.99444471  0.63410887  0.88239319     0.02400
C504        C  0.03391084  0.65035141  0.83641606    -0.11800
C505        C  0.09353874  0.64069959  0.84307330    -0.01800
C506        C  0.11310992  0.63656032  0.89739228    -0.07000
H507        H  0.98390340  0.62047724  0.97267822     0.05400
H508        H  0.12492800  0.64977351  0.80800948     0.08800
Br509      Br  0.06037498  0.76490425  0.92192616    -0.06700
Br510      Br  0.08090932  0.62130732  0.16838109    -0.03700
Br511      Br  0.91139372  0.63846468  0.87940412    -0.00800
Br512      Br  0.18977367  0.65846504  0.90572411    -0.05200
C513        C  0.93534353  0.10235619  0.63596100    -0.12600
C514        C  0.97616771  0.14324207  0.63974747     0.02900
C515        C  0.02295136  0.14502133  0.59989682    -0.13100
C516        C  0.03248447  0.10456456  0.55837973     0.17700
C517        C  0.98573434  0.07168853  0.54830501    -0.10200
C518        C  0.93776400  0.07092147  0.58732310    -0.03100
H519        H  0.05682105  0.17134405  0.60929048     0.04300
C520        C  0.09354164  0.08223960  0.54916470     0.19700
H521        H  0.90468714  0.04188122  0.58209749     0.09400
C522        C  0.10337978  0.02596590  0.56853927    -0.16500
C523        C  0.14666413  0.01103828  0.60489967     0.02400
C524        C  0.18311094  0.05272029  0.61878562    -0.11800
C525        C  0.18502301  0.10232740  0.58442510    -0.01800
C526        C  0.13974820  0.11834410  0.55049413    -0.07000
H527        H  0.07076094  0.99598693  0.56645851     0.05400
H528        H  0.21605285  0.13301445  0.59105873     0.08800
Br529      Br  0.98827982  0.01794979  0.49034701    -0.06700
Br530      Br  0.97935120  0.19121166  0.70268864    -0.03700
Br531      Br  0.14368345  0.93701115  0.64114930    -0.00800
Br532      Br  0.13624467  0.19591743  0.52330434    -0.05200
C533        C  0.25165892  0.05632504  0.40318940    -0.12600
C534        C  0.22363621  0.10656915  0.42157109     0.02900
C535        C  0.16404699  0.11062159  0.41655717    -0.13100
C536        C  0.13366531  0.06100948  0.41714060     0.17700
C537        C  0.16491119  0.00972977  0.43260178    -0.10200
C538        C  0.22547797  0.00762993  0.42507484    -0.03100
H539        H  0.14495220  0.15152916  0.40545941     0.04300
C540        C  0.07913573  0.06148395  0.38705590     0.19700
H541        H  0.24963745  0.96724032  0.42482762     0.09400
C542        C  0.06978503  0.01512622  0.35452608    -0.16500
C543        C  0.02104741  0.01391404  0.32321396     0.02400
C544        C  0.98391552  0.06248683  0.31776640    -0.11800
C545        C  0.99466386  0.10961055  0.34788010    -0.01800
C546        C  0.03914757  0.10885963  0.38401363    -0.07000
H547        H  0.10058088  0.97922743  0.35259564     0.05400
H548        H  0.96568291  0.14703598  0.34657032     0.08800
Br549      Br  0.12928799  0.94156230  0.45847491    -0.06700
Br550      Br  0.26507480  0.17385918  0.42176255    -0.03700
Br551      Br  0.00790395  0.94453548  0.29034817    -0.00800
Br552      Br  0.03476553  0.17255677  0.43097869    -0.05200
C553        C  0.67532574  0.16675684  0.99625303    -0.12600
C554        C  0.69391202  0.11650157  0.97010447     0.02900
C555        C  0.65458432  0.07556470  0.96621267    -0.13100
C556        C  0.59618092  0.08394002  0.98689206     0.17700
C557        C  0.57673272  0.13578332  0.00907139    -0.10200
C558        C  0.61645429  0.17666420  0.01408260    -0.03100
H559        H  0.67078416  0.03552508  0.94981223     0.04300
C560        C  0.56170247  0.03384151  0.99456279     0.19700
H561        H  0.60150508  0.21609716  0.03262170     0.09400
C562        C  0.56181423  0.00792673  0.04922114    -0.16500
C563        C  0.58900936  0.95417368  0.05635014     0.02400
C564        C  0.61440732  0.92722553  0.00776989    -0.11800
C565        C  0.59493337  0.94615498  0.95438847    -0.01800
C566        C  0.56505995  0.99865808  0.94852302    -0.07000
H567        H  0.55176731  0.03277781  0.08622894     0.05400
H568        H  0.60842693  0.92388876  0.91633312     0.08800
Br569      Br  0.49690380  0.15190720  0.03309353    -0.06700
Br570      Br  0.77311784  0.09859437  0.94402034    -0.03700
Br571      Br  0.59194237  0.92189054  0.13226910    -0.00800
Br572      Br  0.54973203  0.02932554  0.87422140    -0.05200
C573        C  0.06254479  0.17366348  0.04892529    -0.12600
C574        C  0.01500541  0.17213064  0.01543619     0.02900
C575        C  0.98378583  0.12352464  0.01732139    -0.13100
C576        C  0.00036771  0.07569070  0.05120469     0.17700
C577        C  0.04178123  0.08144401  0.09153202    -0.10200
C578        C  0.07191771  0.13023762  0.09003046    -0.03100
H579        H  0.95112098  0.12064148  0.98725557     0.04300
C580        C  0.99380105  0.01949468  0.02872874     0.19700
H581        H  0.10702190  0.13164474  0.11768118     0.09400
C582        C  0.02008750  0.01113424  0.97415247    -0.16500
C583        C  0.05007532  0.96038300  0.96171470     0.02400
C584        C  0.05410403  0.91752014  0.00513872    -0.11800
C585        C  0.01495247  0.92108337  0.05358311    -0.01800
C586        C  0.98279619  0.97175040  0.06436066    -0.07000
H587        H  0.02571858  0.04657761  0.94413413     0.05400
H588        H  0.01401920  0.88703329  0.08571700     0.08800
Br589      Br  0.06849412  0.02203031  0.14319189    -0.06700
Br590      Br  0.99208476  0.23430731  0.96578677    -0.03700
Br591      Br  0.09451321  0.95943541  0.88959463    -0.00800
Br592      Br  0.92943204  0.97625983  0.13014629    -0.05200
loop_ 
_geom_bond_atom_site_label_1 
_geom_bond_atom_site_label_2 
_geom_bond_distance 
_geom_bond_site_symmetry_2 
_ccdc_geom_bond_type 
C1            N2   1.353   1_554  A
C1            N6   1.357       .  A
C1          C584   1.478       .  S
N2            C3   1.353       .  A
C3            N4   1.371   1_556  A
C3          C168   1.485       .  S
N4            C5   1.371       .  A
C5            N6   1.358       .  A
C5          C304   1.486       .  S
C7            N8   1.353   1_554  A
C7           N12   1.355       .  A
C7          C553   1.466   1_554  S
N8            C9   1.358       .  A
C9           N10   1.347   1_556  A
C9          C132   1.438       .  S
N10          C11   1.349       .  A
C11          N12   1.355       .  A
C11         C258   1.433       .  S
C13          N14   1.359       .  A
C13          N18   1.348       .  A
C13         C544   1.483       .  S
N14          C15   1.363       .  A
C15          N16   1.372       .  A
C15         C285   1.476   1_545  S
N16          C17   1.366       .  A
C17          N18   1.344       .  A
C17         C240   1.473       .  S
C19          N20   1.344       .  A
C19          N24   1.350       .  A
C19         C524   1.473       .  S
N20          C21   1.353       .  A
C21          N22   1.346       .  A
C21         C164   1.426   1_545  S
N22          C23   1.348       .  A
C23          N24   1.352       .  A
C23         C101   1.415       .  S
C25          N26   1.346   1_455  A
C25          N30   1.347       .  A
C25         C493   1.447       .  S
N26          C27   1.348       .  A
C27          N28   1.364   1_655  A
C27         C289   1.456       .  S
N28          C29   1.365       .  A
C29          N30   1.356       .  A
C29         C322   1.456       .  S
C31          N32   1.343       .  A
C31          N36   1.342   1_455  A
C31         C473   1.493       .  S
N32          C33   1.354       .  A
C33          N34   1.396       .  A
C33         C104   1.522       .  S
N34          C35   1.399   1_455  A
C35          N36   1.355       .  A
C35         C136   1.516       .  S
C37          N38   1.364       .  A
C37          N42   1.357   1_554  A
C37         C564   1.490       .  S
N38          C39   1.361       .  A
C39          N40   1.395       .  A
C39         C288   1.537       .  S
N40          C41   1.393   1_554  A
C41          N42   1.350       .  A
C41         C212   1.527       .  S
C43          N44   1.356       .  A
C43          N48   1.366   1_554  A
C43         C573   1.479       .  S
N44          C45   1.352       .  A
C45          N46   1.348       .  A
C45         C341   1.447       .  S
N46          C47   1.350   1_554  A
C47          N48   1.365       .  A
C47         C105   1.460       .  S
C49          N50   1.357       .  A
C49          N54   1.341       .  A
C49         C513   1.465       .  S
N50          C51   1.357       .  A
C51          N52   1.358       .  A
C51         C226   1.449   1_545  S
N52          C53   1.355       .  A
C53          N54   1.343       .  A
C53         C150   1.439       .  S
C55          N56   1.353       .  A
C55          N60   1.353       .  A
C55         C533   1.479       .  S
N56          C57   1.342       .  A
C57          N58   1.404       .  A
C57         C340   1.542       .  S
N58          C59   1.406       .  A
C59          N60   1.353       .  A
C59         C308   1.536   1_545  S
C61          N62   1.342   1_455  A
C61          N66   1.355       .  A
C61         C504   1.479       .  S
N62          C63   1.347       .  A
C63          N64   1.357   1_655  A
C63         C208   1.442       .  S
N64          C65   1.359       .  A
C65          N66   1.355       .  A
C65         C182   1.447       .  S
C67          N68   1.356       .  A
C67          N72   1.351   1_655  A
C67         C484   1.469   1_655  S
N68          C69   1.361       .  A
C69          N70   1.373       .  A
C69         C244   1.487       .  S
N70          C71   1.372   1_655  A
C71          N72   1.354       .  A
C71         C337   1.477       .  S
C73          N74   1.354       .  A
C73          N78   1.345       .  A
C73         C464   1.480       .  S
N74          C75   1.356       .  A
C75          N76   1.351       .  A
C75         C175   1.439       .  S
N76          C77   1.354       .  A
C77          N78   1.351       .  A
C77         C112   1.427       .  S
C79          N80   1.360       .  A
C79          N84   1.356       .  A
C79         C433   1.492       .  S
N80          C81   1.357       .  A
C81          N82   1.406       .  A
C81         C334   1.546       .  S
N82          C83   1.403       .  A
C83          N84   1.348       .  A
C83         C314   1.546       .  S
C85          N86   1.356       .  A
C85          N90   1.338       .  A
C85         C413   1.468       .  S
N86          C87   1.354       .  A
C87          N88   1.372       .  A
C87         C330   1.471       .  S
N88          C89   1.368       .  A
C89          N90   1.343       .  A
C89          C94   1.461       .  S
O91         Ni97   1.903       .  S
O91         C112   1.261       .  A
O92        Ni115   1.870       .  S
O92         C101   1.267       .  A
O93         Ni97   1.864       .  S
O93        Ni115   1.885       .  S
O93        Ni109   1.933       .  S
O93         H116   0.967       .  S
C94         O111   1.286       .  A
C94         O103   1.282       .  A
O95        Ni114   1.902       .  S
O95         C101   1.268       .  A
O96        Ni114   1.919       .  S
O96          C98   1.274       .  A
Ni97        O100   1.908       .  S
Ni97        O102   1.907       .  S
C98         C125   1.532       .  S
C98         O108   1.283       .  A
O99        Ni115   1.937       .  S
O99         C105   1.280       .  A
O100        C105   1.280       .  A
O102        C104   1.269       .  A
O103       Ni114   1.935       .  S
C104        O110   1.282       .  A
H106        O107   0.967       .  S
O107       Ni115   1.921       .  S
O107       Ni109   1.866       .  S
O107       Ni114   1.862       .  S
O108       Ni109   2.004       .  S
Ni109       O113   1.896       .  S
Ni109       O111   1.913       .  S
O110       Ni115   2.000       .  S
C112        O113   1.265       .  A
C117        N118   1.349       .  A
C117        N122   1.350       .  A
C117        C393   1.468       .  S
N118        C119   1.354       .  A
C119        N120   1.362       .  A
C119        C247   1.462       .  S
N120        C121   1.362       .  A
C121        N122   1.349       .  A
C121        C143   1.449       .  S
C123        N124   1.341       .  A
C123        N128   1.339       .  A
C123        C373   1.464       .  S
N124        C125   1.354       .  A
C125        N126   1.399       .  A
N126        C127   1.404       .  A
C127        N128   1.355       .  A
C127        C142   1.516       .  S
O129       Ni135   1.921       .  S
O129        C150   1.265       .  A
O130       Ni153   1.934       .  S
O130        C139   1.281       .  A
O131       Ni135   1.892       .  S
O131       Ni153   1.903       .  S
O131       Ni147   1.905       .  S
O131        H154   0.967       .  S
C132        O149   1.262       .  A
C132        O141   1.276       .  A
O133       Ni152   1.933       .  S
O133        C139   1.274       .  A
O134       Ni152   1.929       .  S
O134        C136   1.279       .  A
Ni135       O138   1.948       .  S
Ni135       O140   1.928       .  S
C136        O146   1.280       .  A
O137       Ni153   1.904       .  S
O137        C143   1.286       .  A
O138        C143   1.288       .  A
C139        C191   1.484       .  S
O140        C142   1.263       .  A
O141       Ni152   1.920       .  S
C142        O148   1.281       .  A
H144        O145   0.966       .  S
O145       Ni153   1.912       .  S
O145       Ni147   1.913       .  S
O145       Ni152   1.892       .  S
O146       Ni147   1.976       .  S
Ni147       O151   1.889       .  S
Ni147       O149   1.890       .  S
O148       Ni153   2.003       .  S
C150        O151   1.266       .  A
C155        N156   1.357       .  A
C155        N160   1.358       .  A
C155        C424   1.497       .  S
N156        C157   1.363       .  A
C157        N158   1.379       .  A
C157        C315   1.500       .  S
N158        C159   1.378       .  A
C159        N160   1.349       .  A
C159        C174   1.501       .  S
O161       Ni167   1.902       .  S
O161        C182   1.264       .  A
O162       Ni185   1.928       .  S
O162        C171   1.269       .  A
O163       Ni167   1.913       .  S
O163       Ni185   1.898       .  S
O163       Ni179   1.915       .  S
O163        H186   0.967       .  S
C164        O181   1.271       .  A
C164        O173   1.281       .  A
O165       Ni184   1.902       .  S
O165        C171   1.267       .  A
O166       Ni184   1.911       .  S
O166        C168   1.265       .  A
Ni167       O170   1.920       .  S
Ni167       O172   1.921       .  S
C168        O178   1.279       .  A
O169       Ni185   1.888       .  S
O169        C175   1.271       .  A
O170        C175   1.279       .  A
C171        C195   1.457       .  S
O172        C174   1.266       .  A
O173       Ni184   1.921       .  S
C174        O180   1.284       .  A
H176        O177   0.956       .  S
O177       Ni185   1.914       .  S
O177       Ni179   1.884       .  S
O177       Ni184   1.906       .  S
O178       Ni179   1.949       .  S
Ni179       O183   1.909       .  S
Ni179       O181   1.870       .  S
O180       Ni185   1.964       .  S
C182        O183   1.266       .  A
C187        N188   1.349       .  A
C187        N192   1.351       .  A
C187        C453   1.455       .  S
N188        C189   1.348       .  A
C189        N190   1.377       .  A
C189        C215   1.479       .  S
N190        C191   1.376       .  A
C191        N192   1.356       .  A
C193        N194   1.349       .  A
C193        N198   1.353       .  A
C193        C364   1.483       .  S
N194        C195   1.352       .  A
C195        N196   1.366       .  A
N196        C197   1.366       .  A
C197        N198   1.360       .  A
C197        C219   1.473       .  S
C199        N200   1.337       .  A
C199        N204   1.344       .  A
C199        C404   1.447       .  S
N200        C201   1.342       .  A
C201        N202   1.407       .  A
C201        C218   1.529       .  S
N202        C203   1.406       .  A
C203        N204   1.350       .  A
C203        C282   1.536       .  S
O205       Ni211   1.927       .  S
O205        C226   1.271       .  A
O206       Ni229   1.946       .  S
O206        C215   1.286       .  A
O207       Ni211   1.914       .  S
O207       Ni229   1.899       .  S
O207       Ni223   1.883       .  S
O207        H230   0.967       .  S
C208        O225   1.256       .  A
C208        O217   1.258       .  A
O209       Ni228   1.927       .  S
O209        C215   1.276       .  A
O210       Ni228   1.936       .  S
O210        C212   1.281       .  A
Ni211       O214   1.910       .  S
Ni211       O216   1.935       .  S
C212        O222   1.299       .  A
O213       Ni229   1.940       .  S
O213        C219   1.286       .  A
O214        C219   1.281       .  A
O216        C218   1.264       .  A
O217       Ni228   1.901       .  S
C218        O224   1.298       .  A
H220        O221   0.966       .  S
O221       Ni229   1.921       .  S
O221       Ni223   1.919       .  S
O221       Ni228   1.931       .  S
O222       Ni223   2.019       .  S
Ni223       O227   1.896       .  S
Ni223       O225   1.908       .  S
O224       Ni229   1.995       .  S
C226        O227   1.264       .  A
C231        N232   1.352       .  A
C231        N236   1.351       .  A
C231        C384   1.483       .  S
N232        C233   1.357       .  A
C233        N234   1.366       .  A
C233        C348   1.466       .  S
N234        C235   1.366       .  A
C235        N236   1.357       .  A
C235        C250   1.463       .  S
O237       Ni243   1.924       .  S
O237        C258   1.267       .  A
O238       Ni261   1.875       .  S
O238        C247   1.268       .  A
O239       Ni243   1.918       .  S
O239       Ni261   1.885       .  S
O239       Ni255   1.917       .  S
O239        H262   0.967       .  S
C240        O257   1.269       .  A
C240        O249   1.277       .  A
O241       Ni260   1.940       .  S
O241        C247   1.278       .  A
O242       Ni260   1.929       .  S
O242        C244   1.278       .  A
Ni243       O246   1.916       .  S
Ni243       O248   1.920       .  S
C244        O254   1.280       .  A
O245       Ni261   1.958       .  S
O245        C251   1.285       .  A
O246        C251   1.275       .  A
O248        C250   1.264       .  A
O249       Ni260   1.930       .  S
C250        O256   1.265       .  A
C251        C271   1.480       .  S
H252        O253   0.942       .  S
O253       Ni261   1.925       .  S
O253       Ni255   1.885       .  S
O253       Ni260   1.905       .  S
O254       Ni255   1.945       .  S
Ni255       O259   1.882       .  S
Ni255       O257   1.926       .  S
O256       Ni261   1.908       .  S
C258        O259   1.261       .  A
C263        N264   1.363       .  A
C263        N268   1.346       .  A
C263        C353   1.482       .  S
N264        C265   1.371       .  A
C265        N266   1.362       .  A
C265        C311   1.462       .  S
N266        C267   1.358       .  A
C267        N268   1.345       .  A
C267        C278   1.453       .  S
C269        N270   1.354       .  A
C269        N274   1.355       .  A
C269        C444   1.469       .  S
N270        C271   1.356       .  A
C271        N272   1.372       .  A
N272        C273   1.374       .  A
C273        N274   1.354       .  A
C273        C296   1.481       .  S
O275       Ni281   1.935       .  S
O275        C296   1.275       .  A
O276       Ni299   1.926       .  S
O276        C285   1.276       .  A
O277       Ni281   1.930       .  S
O277       Ni299   1.920       .  S
O277       Ni293   1.913       .  S
O277        H300   0.967       .  S
C278        O295   1.276       .  A
C278        O287   1.279       .  A
O279       Ni298   1.934       .  S
O279        C285   1.276       .  A
O280       Ni298   1.956       .  S
O280        C282   1.272       .  A
Ni281       O284   1.909       .  S
Ni281       O286   1.938       .  S
C282        O292   1.294       .  A
O283       Ni299   1.909       .  S
O283        C289   1.267       .  A
O284        C289   1.272       .  A
O286        C288   1.274       .  A
O287       Ni298   1.917       .  S
C288        O294   1.300       .  A
H290        O291   0.967       .  S
O291       Ni299   1.895       .  S
O291       Ni293   1.900       .  S
O291       Ni298   1.921       .  S
O292       Ni293   1.984       .  S
Ni293       O297   1.931       .  S
Ni293       O295   1.914       .  S
O294       Ni299   2.017       .  S
C296        O297   1.276       .  A
O301       Ni307   1.950       .  S
O301        C322   1.285       .  A
O302       Ni325   1.894       .  S
O302        C311   1.277       .  A
O303       Ni307   1.908       .  S
O303       Ni325   1.869       .  S
O303       Ni319   1.921       .  S
O303        H326   0.967       .  S
C304        O321   1.284       .  A
C304        O313   1.281       .  A
O305       Ni324   1.931       .  S
O305        C311   1.278       .  A
O306       Ni324   1.958       .  S
O306        C308   1.274       .  A
Ni307       O310   1.961       .  S
Ni307       O312   1.965       .  S
C308        O318   1.297       .  A
O309       Ni325   1.929       .  S
O309        C315   1.283       .  A
O310        C315   1.285       .  A
O312        C314   1.277       .  A
O313       Ni324   1.939       .  S
C314        O320   1.300       .  A
H316        O317   0.966       .  S
O317       Ni325   1.927       .  S
O317       Ni319   1.874       .  S
O317       Ni324   1.909       .  S
O318       Ni319   1.999       .  S
Ni319       O323   1.891       .  S
Ni319       O321   1.939       .  S
O320       Ni325   2.011       .  S
C322        O323   1.271       .  A
O327       Ni333   1.922       .  S
O327        C348   1.278       .  A
O328       Ni351   1.919       .  S
O328        C337   1.279       .  A
O329       Ni333   1.897       .  S
O329       Ni351   1.889       .  S
O329       Ni345   1.924       .  S
O329        H352   0.967       .  S
C330        O347   1.285       .  A
C330        O339   1.281       .  A
O331       Ni350   1.949       .  S
O331        C337   1.284       .  A
O332       Ni350   1.961       .  S
O332        C334   1.275       .  A
Ni333       O336   1.910       .  S
Ni333       O338   1.952       .  S
C334        O344   1.299       .  A
O335       Ni351   1.909       .  S
O335        C341   1.274       .  A
O336        C341   1.277       .  A
O338        C340   1.273       .  A
O339       Ni350   1.931       .  S
C340        O346   1.304       .  A
H342        O343   0.966       .  S
O343       Ni351   1.912       .  S
O343       Ni345   1.890       .  S
O343       Ni350   1.902       .  S
O344       Ni345   2.011       .  S
Ni345       O349   1.929       .  S
Ni345       O347   1.938       .  S
O346       Ni351   2.016       .  S
C348        O349   1.280       .  A
C353        C354   1.420       .  A
C353        C358   1.412       .  A
C354        C355   1.384       .  A
C354       Br370   1.927       .  S
C355        C356   1.393       .  A
C355        H359   1.085       .  S
C356        C360   1.474   1_565  S
C356        C357   1.402       .  A
C357        C358   1.413       .  A
C357       Br369   1.912   1_565  S
C358        H361   1.083       .  S
C360        C362   1.409       .  A
C360        C366   1.408   1_545  A
C362        C363   1.400       .  A
C362        H367   1.084       .  S
C363        C364   1.405   1_545  A
C363       Br371   1.916       .  S
C364        C365   1.403       .  A
C365        C366   1.392       .  A
C365        H368   1.077       .  S
C366       Br372   1.919       .  S
C373        C374   1.403       .  A
C373        C378   1.409       .  A
C374        C375   1.379       .  A
C374       Br390   1.914       .  S
C375        C376   1.401       .  A
C375        H379   1.084       .  S
C376        C380   1.474       .  S
C376        C377   1.408       .  A
C377        C378   1.407       .  A
C377       Br389   1.918       .  S
C378        H381   1.083       .  S
C380        C382   1.399       .  A
C380        C386   1.412       .  A
C382        C383   1.398       .  A
C382        H387   1.083       .  S
C383        C384   1.413       .  A
C383       Br391   1.911       .  S
C384        C385   1.403       .  A
C385        C386   1.393       .  A
C385        H388   1.083       .  S
C386       Br392   1.917       .  S
C393        C394   1.409       .  A
C393        C398   1.405       .  A
C394        C395   1.391       .  A
C394       Br410   1.916       .  S
C395        C396   1.401       .  A
C395        H399   1.084       .  S
C396        C400   1.459       .  S
C396        C397   1.406       .  A
C397        C398   1.383       .  A
C397       Br409   1.916       .  S
C398        H401   1.084       .  S
C400        C402   1.398       .  A
C400        C406   1.410       .  A
C402        C403   1.385       .  A
C402        H407   1.083       .  S
C403        C404   1.412       .  A
C403       Br411   1.927       .  S
C404        C405   1.395       .  A
C405        C406   1.385       .  A
C405        H408   1.084       .  S
C406       Br412   1.921       .  S
C413        C414   1.420       .  A
C413        C418   1.398       .  A
C414        C415   1.394       .  A
C414       Br430   1.930       .  S
C415        C416   1.401       .  A
C415        H419   1.081       .  S
C416        C420   1.477       .  S
C416        C417   1.415       .  A
C417        C418   1.382       .  A
C417       Br429   1.925       .  S
C418        H421   1.083       .  S
C420        C422   1.403       .  A
C420        C426   1.417       .  A
C422        C423   1.393       .  A
C422        H427   1.084       .  S
C423        C424   1.411       .  A
C423       Br431   1.892       .  S
C424        C425   1.403       .  A
C425        C426   1.400       .  A
C425        H428   1.084       .  S
C426       Br432   1.913       .  S
C433        C434   1.408       .  A
C433        C438   1.401       .  A
C434        C435   1.402       .  A
C434       Br450   1.919       .  S
C435        C436   1.411       .  A
C435        H439   1.082       .  S
C436        C440   1.481       .  S
C436        C437   1.419       .  A
C437        C438   1.400       .  A
C437       Br449   1.920       .  S
C438        H441   1.083       .  S
C440        C442   1.410       .  A
C440        C446   1.407       .  A
C442        C443   1.398       .  A
C442        H447   1.084       .  S
C443        C444   1.405       .  A
C443       Br451   1.917       .  S
C444        C445   1.400       .  A
C445        C446   1.391       .  A
C445        H448   1.084       .  S
C446       Br452   1.903       .  S
C453        C454   1.396       .  A
C453        C458   1.405       .  A
C454        C455   1.385       .  A
C454       Br470   1.914       .  S
C455        C456   1.409       .  A
C455        H459   1.083       .  S
C456        C460   1.475       .  S
C456        C457   1.408       .  A
C457        C458   1.400       .  A
C457       Br469   1.918   1_556  S
C458        H461   1.084       .  S
C460        C462   1.402       .  A
C460        C466   1.413       .  A
C462        C463   1.394       .  A
C462        H467   1.083       .  S
C463        C464   1.413       .  A
C463       Br471   1.924       .  S
C464        C465   1.404       .  A
C465        C466   1.392       .  A
C465        H468   1.081       .  S
C466       Br472   1.919       .  S
C473        C474   1.410       .  A
C473        C478   1.409   1_455  A
C474        C475   1.402       .  A
C474       Br490   1.918       .  S
C475        C476   1.407       .  A
C475        H479   1.083       .  S
C476        C480   1.482   1_556  S
C476        C477   1.409   1_455  A
C477        C478   1.397       .  A
C477       Br489   1.921       .  S
C478        H481   1.083       .  S
C480        C482   1.405   1_455  A
C480        C486   1.410       .  A
C482        C483   1.402       .  A
C482        H487   1.083       .  S
C483        C484   1.407   1_655  A
C483       Br491   1.917       .  S
C484        C485   1.400       .  A
C485        C486   1.396       .  A
C485        H488   1.084       .  S
C486       Br492   1.914   1_554  S
C493        C494   1.407       .  A
C493        C498   1.391       .  A
C494        C495   1.397       .  A
C494       Br510   1.915       .  S
C495        C496   1.399   1_554  A
C495        H499   1.084       .  S
C496        C500   1.453       .  S
C496        C497   1.409       .  A
C497        C498   1.378   1_556  A
C497       Br509   1.927       .  S
C498        H501   1.078       .  S
C500        C502   1.398       .  A
C500        C506   1.399       .  A
C502        C503   1.393   1_455  A
C502        H507   1.084   1_455  S
C503        C504   1.421   1_655  A
C503       Br511   1.928       .  S
C504        C505   1.406       .  A
C505        C506   1.389       .  A
C505        H508   1.083       .  S
C506       Br512   1.911       .  S
C513        C514   1.413       .  A
C513        C518   1.399       .  A
C514        C515   1.383   1_655  A
C514       Br530   1.930       .  S
C515        C516   1.406       .  A
C515        H519   1.079       .  S
C516        C520   1.484       .  S
C516        C517   1.419   1_455  A
C517        C518   1.391       .  A
C517       Br529   1.917       .  S
C518        H521   1.084       .  S
C520        C522   1.406       .  A
C520        C526   1.420       .  A
C522        C523   1.387       .  A
C522        H527   1.079   1_545  S
C523        C524   1.412       .  A
C523       Br531   1.926   1_545  S
C524        C525   1.402       .  A
C525        C526   1.390       .  A
C525        H528   1.084       .  S
C526       Br532   1.927       .  S
C533        C534   1.399       .  A
C533        C538   1.403       .  A
C534        C535   1.392       .  A
C534       Br550   1.923       .  S
C535        C536   1.415       .  A
C535        H539   1.074       .  S
C536        C540   1.495       .  S
C536        C537   1.427       .  A
C537        C538   1.400       .  A
C537       Br549   1.923   1_545  S
C538        H541   1.083   1_545  S
C540        C542   1.415       .  A
C540        C546   1.417       .  A
C542        C543   1.398       .  A
C542        H547   1.080   1_545  S
C543        C544   1.405   1_455  A
C543       Br551   1.914   1_545  S
C544        C545   1.405       .  A
C545        C546   1.385   1_655  A
C545        H548   1.083       .  S
C546       Br552   1.919       .  S
C553        C554   1.405       .  A
C553        C558   1.407   1_556  A
C554        C555   1.389       .  A
C554       Br570   1.921       .  S
C555        C556   1.410       .  A
C555        H559   1.083       .  S
C556        C560   1.476       .  S
C556        C557   1.402   1_556  A
C557        C558   1.399       .  A
C557       Br569   1.915       .  S
C558        H561   1.083       .  S
C560        C562   1.403   1_556  A
C560        C566   1.401   1_545  A
C562        C563   1.400   1_545  A
C562        H567   1.083       .  S
C563        C564   1.415       .  A
C563       Br571   1.919       .  S
C564        C565   1.413   1_554  A
C565        C566   1.398       .  A
C565        H568   1.083       .  S
C566       Br572   1.916   1_565  S
C573        C574   1.407       .  A
C573        C578   1.401       .  A
C574        C575   1.403   1_455  A
C574       Br590   1.916   1_454  S
C575        C576   1.410   1_655  A
C575        H579   1.084   1_554  S
C576        C580   1.487   1_455  S
C576        C577   1.419       .  A
C577        C578   1.393       .  A
C577       Br589   1.925       .  S
C578        H581   1.084       .  S
C580        C582   1.402   1_654  A
C580        C586   1.407   1_545  A
C582        C583   1.390   1_545  A
C582        H587   1.084       .  S
C583        C584   1.415   1_556  A
C583       Br591   1.924       .  S
C584        C585   1.409       .  A
C585        C586   1.403   1_455  A
C585        H588   1.083       .  S
C586       Br592   1.915       .  S
