geometry optimzed in LAMMPS
_audit_creation_date              2020-11-30 
_audit_creation_method            'lammps2cif' 
_symmetry_space_group_name_H-M    'P1' 
_symmetry_Int_Tables_number       1 
_symmetry_cell_setting            triclinic 
loop_ 
_symmetry_equiv_pos_as_xyz 
  x,y,z 
_cell_length_a                    33.7492747 
_cell_length_b                    34.83092469077862 
_cell_length_c                    29.547336851069502 
_cell_angle_alpha                 89.49404881186426 
_cell_angle_beta                  91.31380294283937 
_cell_angle_gamma                 89.2447064907437 
loop_ 
_atom_site_label 
_atom_site_type_symbol 
_atom_site_fract_x 
_atom_site_fract_y 
_atom_site_fract_z 
_atom_site_charge 
In1        In  0.29904900  0.29410372  0.60745340     1.36900
C2          C  0.25440337  0.25024748  0.55120705     0.77000
O3          O  0.32443829  0.23513304  0.61950410    -0.61500
O4          O  0.32848192  0.27532621  0.67304583    -0.52400
C5          C  0.35103138  0.34925846  0.58427852     0.69600
O6          O  0.31422971  0.35529888  0.58591342    -0.47300
C7          C  0.24745719  0.32452594  0.66286916     0.74300
O8          O  0.28814485  0.26251089  0.54070506    -0.59100
O9          O  0.27548495  0.30256877  0.67569329    -0.49200
O10         O  0.24267989  0.26248213  0.58846370    -0.55500
C11         C  0.33302134  0.24109982  0.66056530     0.84500
O12         O  0.36070031  0.31440247  0.58897507    -0.57400
O13         O  0.24664029  0.33321245  0.62117115    -0.60700
In14       In  0.43494183  0.43452614  0.60423836     1.36900
C15         C  0.47368975  0.48031014  0.54630576     0.76600
O16         O  0.39606707  0.48616816  0.61492485    -0.61500
O17         O  0.42386454  0.45926076  0.67213233    -0.52400
C18         C  0.38055125  0.38051428  0.58363065     0.69600
O19         O  0.37150467  0.41513337  0.59049602    -0.47300
C20         C  0.49146537  0.39963879  0.65393271     0.74300
O21         O  0.45262437  0.45258612  0.53290771    -0.59100
O22         O  0.45713127  0.40614754  0.66811909    -0.49200
O23         O  0.47448666  0.48447884  0.58844164    -0.55500
C24         C  0.40295000  0.48697444  0.65708447     0.84500
O25         O  0.41735834  0.37440201  0.58186867    -0.57400
O26         O  0.49627490  0.40893398  0.61304061    -0.60700
In27       In  0.18446643  0.18502418  0.46273366     1.36900
C28         C  0.23037706  0.22420407  0.52244477     0.77000
O29         O  0.23188190  0.14278958  0.44170794    -0.61500
O30         O  0.19198764  0.16693218  0.39184131    -0.52400
C31         C  0.12788975  0.13309199  0.48072593     0.69600
O32         O  0.16431885  0.12618872  0.48815716    -0.47300
C33         C  0.16084819  0.24609046  0.41440704     0.74300
O34         O  0.19530388  0.21466014  0.53086957    -0.59100
O35         O  0.19102646  0.22615688  0.40609466    -0.49200
O36         O  0.24297673  0.21024261  0.48648935    -0.55500
C37         C  0.22266542  0.14681010  0.40010167     0.84500
O38         O  0.12041659  0.16733163  0.46903836    -0.57400
O39         O  0.14177081  0.23474677  0.44820492    -0.60700
In40       In  0.04212424  0.04946038  0.45883501     1.36900
C41         C  0.00214010  0.00322810  0.51566476     0.77000
O42         O  0.98182135  0.07755896  0.45108856    -0.61500
O43         O  0.01893028  0.07534900  0.39429990    -0.52400
C44         C  0.09690647  0.10313869  0.47998235     0.69600
O45         O  0.10454347  0.06763557  0.48121710    -0.47300
C46         C  0.07144987  0.49848043  0.40539446     0.74300
O47         O  0.02071034  0.03249205  0.52911916    -0.59100
O48         O  0.04931052  0.02504117  0.39062936    -0.49200
O49         O  0.00497676  0.99724007  0.47407340    -0.55500
C50         C  0.48278080  0.08548140  0.40841320     0.84500
O51         O  0.06074048  0.11089476  0.47288355    -0.57400
O52         O  0.08683902  0.00289044  0.44370871    -0.60700
C53         C  0.12237888  0.37338383  0.28796386    -0.03100
C54         C  0.11937096  0.36364012  0.78612628    -0.03100
C55         C  0.35159877  0.11785052  0.27671906    -0.03100
In56       In  0.19209222  0.04224625  0.96078817     1.36900
C57         C  0.23890647  0.00002696  0.01776450     0.77000
O58         O  0.16925213  0.98267562  0.95339455    -0.61500
O59         O  0.15995415  0.02211609  0.89876898    -0.52400
C60         C  0.13906579  0.09659221  0.98262374     0.69600
O61         O  0.17558529  0.10318222  0.98054071    -0.47300
C62         C  0.23916413  0.07269347  0.90060055     0.74300
O63         O  0.20719926  0.01624476  0.03016801    -0.59100
O64         O  0.20924839  0.05327060  0.89025344    -0.49200
O65         O  0.24774336  0.00744153  0.97757615    -0.55500
C66         C  0.15753161  0.48769568  0.91248506     0.84500
O67         O  0.13059318  0.06157404  0.98031453    -0.57400
O68         O  0.24392904  0.07888363  0.94251768    -0.60700
In69       In  0.05224263  0.17885558  0.95521701     1.36900
C70         C  0.01203274  0.22311392  0.01323859     0.77000
O71         O  0.09157471  0.22769515  0.93803063    -0.61500
O72         O  0.05306177  0.20596914  0.88675381    -0.52400
C73         C  0.10839967  0.12719507  0.98039696     0.69600
O74         O  0.11615673  0.16170175  0.97138118    -0.47300
C75         C  0.50100189  0.13682326  0.90954266     0.74300
O76         O  0.03633280  0.19720609  0.02640279    -0.59100
O77         O  0.03693425  0.14534694  0.89358510    -0.49200
O78         O  0.00832205  0.22613297  0.97105575    -0.55500
C79         C  0.07787327  0.23089130  0.89796538     0.84500
O80         O  0.07190477  0.12017532  0.98121586    -0.57400
O81         O  0.99430230  0.15006464  0.94518030    -0.60700
In82       In  0.44673669  0.29072487  0.10485210     1.36900
C83         C  0.48798918  0.24773020  0.04622084     0.77000
O84         O  0.50008267  0.32831036  0.11317589    -0.61500
O85         O  0.47990329  0.29620467  0.16972863    -0.52400
C86         C  0.39258594  0.34731970  0.08838467     0.69600
O87         O  0.38528534  0.31246557  0.08133467    -0.47300
C88         C  0.40750830  0.24096342  0.15488392     0.74300
O89         O  0.46433103  0.27431519  0.03315258    -0.59100
O90         O  0.42240652  0.27110642  0.17089312    -0.49200
O91         O  0.49055341  0.24370350  0.08839136    -0.55500
C92         C  0.50533928  0.31864662  0.15424803     0.84500
O93         O  0.42825729  0.35344777  0.09887176    -0.57400
O94         O  0.41094123  0.23779531  0.11266797    -0.60700
In95       In  0.30602929  0.43067278  0.11161834     1.36900
C96         C  0.26177389  0.47470940  0.05314924     0.77000
O97         O  0.25221326  0.39438572  0.12353669    -0.61500
O98         O  0.28404363  0.41793434  0.17973688    -0.52400
C99         C  0.36165549  0.37782490  0.09004692     0.69600
O100        O  0.32504291  0.37164406  0.08576024    -0.47300
C101        C  0.33423326  0.48442706  0.16481497     0.74300
O102        O  0.29570930  0.46165101  0.04358736    -0.59100
O103        O  0.32869170  0.45078645  0.17895876    -0.49200
O104        O  0.24999077  0.46373696  0.09103918    -0.55500
C105        C  0.25394998  0.40036297  0.16572890     0.84500
O106        O  0.36957090  0.41175439  0.10083709    -0.57400
O107        O  0.32974991  0.48926702  0.12261460    -0.60700
C108        C  0.37003919  0.11098826  0.78302019    -0.03100
C109        C  0.47121856  0.11907554  0.87927786    -0.06700
C110        C  0.47803414  0.11857123  0.83268611    -0.17900
C111        C  0.44690639  0.11375174  0.80095083     0.10500
C112        C  0.40703863  0.11119197  0.81613624    -0.06700
C113        C  0.40268041  0.10484068  0.86338081    -0.17900
C114        C  0.43386710  0.10854120  0.89454148     0.10500
S115        S  0.45928015  0.11635702  0.74179573    -0.32900
S116        S  0.42395443  0.09888252  0.95328478    -0.32900
H117        H  0.46214177  0.08410510  0.96367719     0.28500
H118        H  0.49995534  0.10781494  0.74764513     0.28500
H119        H  0.50730893  0.12511685  0.82077847     0.19100
H120        H  0.37514207  0.09571742  0.87732085     0.19100
C121        C  0.33053141  0.10524815  0.80950001    -0.06700
C122        C  0.30525960  0.07430266  0.79916206    -0.17900
C123        C  0.27506272  0.06345023  0.82768759     0.10500
C124        C  0.26726325  0.08541274  0.86640001    -0.06700
C125        C  0.28724769  0.11983376  0.87280783    -0.17900
C126        C  0.31741500  0.13102651  0.84379518     0.10500
S127        S  0.24993513  0.01944015  0.81423432    -0.32900
S128        S  0.34017671  0.17687794  0.85405016    -0.32900
H129        H  0.31558890  0.18929383  0.88895970     0.28500
H130        H  0.25610847  0.00330576  0.85772008     0.28500
H131        H  0.30957364  0.05686468  0.76963706     0.19100
H132        H  0.27947097  0.13770454  0.90114920     0.19100
C133        C  0.36407423  0.15201132  0.24495304    -0.06700
C134        C  0.36608502  0.14681807  0.19735820    -0.17900
C135        C  0.37695576  0.17563697  0.16735020     0.10500
C136        C  0.38981582  0.21112976  0.18408944    -0.06700
C137        C  0.39020006  0.21669180  0.23101080    -0.17900
C138        C  0.37793612  0.18832022  0.26141721     0.10500
S139        S  0.37529623  0.16379671  0.10803066    -0.32900
S140        S  0.38323535  0.20164642  0.32020570    -0.32900
H141        H  0.34662931  0.18864325  0.33435187     0.28500
H142        H  0.35199697  0.19628332  0.09600962     0.28500
H143        H  0.36120075  0.11960328  0.18177250     0.19100
H144        H  0.40095888  0.24351958  0.24457470     0.19100
C145        C  0.34426805  0.07975382  0.24923868    -0.06700
C146        C  0.36708576  0.04581418  0.25820637    -0.17900
C147        C  0.36681699  0.01461906  0.22856235     0.10500
C148        C  0.34222123  0.01612709  0.18955730    -0.06700
C149        C  0.31531118  0.04655833  0.18398061    -0.17900
C150        C  0.31411350  0.07691614  0.21449064     0.10500
S151        S  0.39907160  0.97420466  0.24193439    -0.32900
S152        S  0.27549658  0.11261176  0.20479456    -0.32900
H153        H  0.25313092  0.09311744  0.17170968     0.28500
H154        H  0.40342255  0.46529215  0.20308001     0.28500
H155        H  0.38618588  0.04318487  0.28787277     0.19100
H156        H  0.29416249  0.04590977  0.15585641     0.19100
C157        C  0.10353954  0.33005649  0.81646402    -0.06700
C158        C  0.09272146  0.29516873  0.79539234    -0.17900
C159        C  0.08493148  0.26199005  0.82062665     0.10500
C160        C  0.08716241  0.26344820  0.86833788    -0.06700
C161        C  0.09189771  0.29888120  0.88916101    -0.17900
C162        C  0.09569560  0.33237194  0.86381287     0.10500
S163        S  0.07554249  0.21848674  0.78979788    -0.32900
S164        S  0.07847112  0.37471528  0.89254766    -0.32900
H165        H  0.05417971  0.38696697  0.85574508     0.28500
H166        H  0.09837435  0.19478184  0.81938828     0.28500
H167        H  0.09328331  0.29305102  0.75883552     0.19100
H168        H  0.08805614  0.30109320  0.92540987     0.19100
C169        C  0.13085003  0.39783374  0.81728178    -0.06700
C170        C  0.10865650  0.43272187  0.81600236    -0.17900
C171        C  0.11551925  0.46204169  0.84722077     0.10500
C172        C  0.14582605  0.45746915  0.88048092    -0.06700
C173        C  0.16892657  0.42396264  0.88116802    -0.17900
C174        C  0.16213059  0.39431906  0.85067465     0.10500
S175        S  0.08008810  0.00104462  0.84979999    -0.32900
S176        S  0.19313646  0.35189014  0.85762073    -0.32900
H177        H  0.20963247  0.36002288  0.90056064     0.28500
H178        H  0.08206117  0.00830385  0.89655975     0.28500
H179        H  0.08383429  0.43677328  0.79269530     0.19100
H180        H  0.19310608  0.42114649  0.90574290     0.19100
C181        C  0.09097423  0.35888209  0.25218488    -0.06700
C182        C  0.08404785  0.31899496  0.24762999    -0.17900
C183        C  0.05787318  0.30451395  0.21518541     0.10500
C184        C  0.03767883  0.32979728  0.18515135    -0.06700
C185        C  0.04612094  0.36879023  0.18615231    -0.17900
C186        C  0.07265387  0.38370792  0.21849014     0.10500
S187        S  0.05308422  0.25301091  0.21245976    -0.32900
S188        S  0.07966800  0.43494018  0.21711889    -0.32900
H189        H  0.05877022  0.44328415  0.17642073     0.28500
H190        H  0.04845972  0.25175254  0.16504683     0.28500
H191        H  0.10042799  0.29794059  0.26772914     0.19100
H192        H  0.03050880  0.38782924  0.16248020     0.19100
C193        C  0.15750870  0.38405738  0.25667557    -0.06700
C194        C  0.17320456  0.35280553  0.23146268    -0.17900
C195        C  0.20430679  0.35672945  0.20161394     0.10500
C196        C  0.22143952  0.39269058  0.19628922    -0.06700
C197        C  0.20678513  0.42405061  0.22010620    -0.17900
C198        C  0.17449982  0.42117922  0.24883413     0.10500
S199        S  0.22174614  0.31443632  0.17301605    -0.32900
S200        S  0.15657109  0.46656476  0.27076311    -0.32900
H201        H  0.17990001  0.49189656  0.24577158     0.28500
H202        H  0.26144582  0.32577288  0.17018543     0.28500
H203        H  0.16178655  0.32421955  0.23613576     0.19100
H204        H  0.22040761  0.45165909  0.21475831     0.19100
C205        C  0.38744930  0.11234671  0.31171132    -0.06700
C206        C  0.38226615  0.11684864  0.35903600    -0.17900
C207        C  0.41261006  0.10982284  0.39123545     0.10500
C208        C  0.45058493  0.09908905  0.37681442    -0.06700
C209        C  0.45744949  0.09793376  0.33020917    -0.17900
C210        C  0.42711281  0.10469057  0.29776709     0.10500
S211        S  0.40183214  0.11588231  0.45047543    -0.32900
S212        S  0.44046930  0.10074271  0.23898861    -0.32900
H213        H  0.48121646  0.10750082  0.24541699     0.28500
H214        H  0.36027476  0.11452369  0.44585068     0.28500
H215        H  0.35480403  0.12759875  0.37196937     0.19100
H216        H  0.48668157  0.09003812  0.31881882     0.19100
C217        C  0.10639498  0.40560759  0.31926296    -0.06700
C218        C  0.13393130  0.42182591  0.35041890    -0.17900
C219        C  0.12416628  0.45277474  0.37787065     0.10500
C220        C  0.08507054  0.46683830  0.37704176    -0.06700
C221        C  0.05630265  0.44828876  0.35082525    -0.17900
C222        C  0.06560798  0.41658932  0.32419174     0.10500
S223        S  0.16354721  0.47473964  0.41029261    -0.32900
S224        S  0.02366574  0.38835172  0.30523924    -0.32900
H225        H  0.99395667  0.41671330  0.30947682     0.28500
H226        H  0.15358754  0.01559570  0.40082583     0.28500
H227        H  0.16448319  0.41242764  0.35079734     0.19100
H228        H  0.02564033  0.45734575  0.35368579     0.19100
C229        C  0.24857319  0.13471018  0.36326275    -0.06700
C230        C  0.25515199  0.16191710  0.32932796    -0.17900
C231        C  0.28548872  0.15758904  0.29820613     0.10500
C232        C  0.31166669  0.12476638  0.30202969    -0.06700
C233        C  0.29995318  0.09483287  0.33185829    -0.17900
C234        C  0.26977794  0.09986165  0.36305954     0.10500
S235        S  0.28783738  0.19520944  0.25553023    -0.32900
S236        S  0.26025570  0.06120380  0.40212123    -0.32900
H237        H  0.22008543  0.07072104  0.40813197     0.28500
H238        H  0.24914129  0.21007565  0.25975216     0.28500
H239        H  0.23766869  0.18823338  0.32887824     0.19100
H240        H  0.31692750  0.06822003  0.33361604     0.19100
C241        C  0.13508080  0.34135155  0.32351987    -0.06700
C242        C  0.10424118  0.32312719  0.34716430    -0.17900
C243        C  0.11120131  0.29214778  0.37673461     0.10500
C244        C  0.15032823  0.27996658  0.38618750    -0.06700
C245        C  0.18148744  0.30016407  0.36720839    -0.17900
C246        C  0.17493892  0.33141522  0.33774234     0.10500
S247        S  0.06878067  0.26772364  0.39837085    -0.32900
S248        S  0.21855812  0.35891154  0.32421799    -0.32900
H249        H  0.24547136  0.34188553  0.35567083     0.28500
H250        H  0.08390644  0.23065469  0.39013457     0.28500
H251        H  0.07378547  0.33141434  0.34014207     0.19100
H252        H  0.21159825  0.29153210  0.37627709     0.19100
C253        C  0.37775141  0.07636648  0.74987128    -0.06700
C254        C  0.38015352  0.08267617  0.70241333    -0.17900
C255        C  0.38534559  0.05307184  0.67169536     0.10500
C256        C  0.39135767  0.01525209  0.68754029    -0.06700
C257        C  0.39086478  0.00812959  0.73423888    -0.17900
C258        C  0.38388226  0.03755527  0.76542581     0.10500
S259        S  0.38743595  0.06642313  0.61273566    -0.32900
S260        S  0.38289426  0.02379075  0.82461852    -0.32900
H261        H  0.38081265  0.98384016  0.81872731     0.28500
H262        H  0.35211183  0.54424458  0.60013410     0.28500
H263        H  0.37988626  0.11114309  0.68788192     0.19100
H264        H  0.39644947  0.97911804  0.74643922     0.19100
C265        C  0.08499370  0.37496705  0.75012569    -0.06700
C266        C  0.04598526  0.36042913  0.75565932    -0.17900
C267        C  0.01599948  0.36379777  0.72242253     0.10500
C268        C  0.02279682  0.38458037  0.68256892    -0.06700
C269        C  0.05963205  0.40137196  0.67712456    -0.17900
C270        C  0.08943048  0.39934510  0.71101438     0.10500
S271        S  0.47224672  0.33849749  0.73150861    -0.32900
S272        S  0.12467460  0.43753703  0.70688362    -0.32900
H273        H  0.12835261  0.43572581  0.65956622     0.28500
H274        H  0.46420779  0.33197501  0.68527810     0.28500
H275        H  0.03751631  0.34623838  0.78648948     0.19100
H276        H  0.06332144  0.42041815  0.64835244     0.19100
C277        C  0.34283255  0.20984962  0.69270102    -0.06700
C278        C  0.37459198  0.21339014  0.72342794    -0.17900
C279        C  0.38417034  0.18438322  0.75559045     0.10500
C280        C  0.36207761  0.14923853  0.75522352    -0.06700
C281        C  0.32788056  0.14861060  0.72629812    -0.17900
C282        C  0.31827572  0.17785150  0.69564497     0.10500
S283        S  0.42187310  0.19657499  0.79744968    -0.32900
S284        S  0.27337538  0.17289630  0.66190184    -0.32900
H285        H  0.26119023  0.21149262  0.66586633     0.28500
H286        H  0.42360638  0.23622038  0.78837261     0.28500
H287        H  0.39183286  0.23936240  0.72221307     0.19100
H288        H  0.30897450  0.12374947  0.72598435     0.19100
C289        C  0.21667578  0.33564450  0.69449549    -0.06700
C290        C  0.19795060  0.30573471  0.71681095    -0.17900
C291        C  0.17243904  0.31261887  0.75255343     0.10500
C292        C  0.15815663  0.35105706  0.76007331    -0.06700
C293        C  0.18286419  0.38011345  0.74283987    -0.17900
C294        C  0.21079736  0.37330614  0.70948847     0.10500
S295        S  0.17645591  0.27564032  0.79600791    -0.32900
S296        S  0.23816214  0.41383928  0.68882117    -0.32900
H297        H  0.27117455  0.39342264  0.67311846     0.28500
H298        H  0.17726368  0.24434237  0.76619628     0.28500
H299        H  0.20715886  0.27650377  0.70965610     0.19100
H300        H  0.18123988  0.40882665  0.75608524     0.19100
In301      In  0.29380543  0.79523603  0.60386673     1.36900
C302        C  0.24812347  0.75401447  0.54596191     0.77000
O303        O  0.31554218  0.73495919  0.61665920    -0.61500
O304        O  0.32576480  0.77637996  0.66779623    -0.52400
C305        C  0.34785804  0.84913648  0.58161658     0.69600
O306        O  0.31118629  0.85626368  0.58286016    -0.47300
C307        C  0.24339965  0.82364185  0.66253524     0.74300
O308        O  0.28360271  0.76245515  0.53777596    -0.59100
O309        O  0.26833435  0.79753979  0.67186173    -0.49200
O310        O  0.23528458  0.76942395  0.58101159    -0.55500
C311        C  0.32703733  0.74152623  0.65672534     0.84500
O312        O  0.35625278  0.81398597  0.58625038    -0.57400
O313        O  0.24494629  0.83735474  0.62279997    -0.60700
In314      In  0.43448197  0.93247812  0.60217772     1.36900
C315        C  0.47421605  0.97937771  0.54603145     0.76600
O316        O  0.39520820  0.98317127  0.61539240    -0.61500
O317        O  0.42522803  0.95629564  0.67119393    -0.52400
C318        C  0.37864583  0.87942403  0.58128573     0.69600
O319        O  0.37076371  0.91470026  0.58494922    -0.47300
C320        C  0.49129595  0.89686542  0.64996054     0.74300
O321        O  0.45366152  0.95162765  0.53163409    -0.59100
O322        O  0.45754206  0.90429867  0.66529697    -0.49200
O323        O  0.47399186  0.98303234  0.58819696    -0.55500
C324        C  0.40356238  0.98385919  0.65724287     0.84500
O325        O  0.41527325  0.87192840  0.58288725    -0.57400
O326        O  0.49526279  0.90528925  0.60864105    -0.60700
In327      In  0.17787301  0.68847317  0.45839176     1.36900
C328        C  0.22362640  0.72825394  0.51742911     0.77000
O329        O  0.22701658  0.64781875  0.43962016    -0.61500
O330        O  0.18757532  0.67009471  0.38795068    -0.52400
C331        C  0.12189670  0.63574334  0.47634376     0.69600
O332        O  0.15819393  0.63010546  0.48573630    -0.47300
C333        C  0.15580759  0.74973515  0.41006346     0.74300
O334        O  0.18764163  0.72126555  0.52444295    -0.59100
O335        O  0.18309352  0.72702676  0.39932264    -0.49200
O336        O  0.23689950  0.71157310  0.48343508    -0.55500
C337        C  0.21878184  0.65113632  0.39770429     0.84500
O338        O  0.11397010  0.66926288  0.46232303    -0.57400
O339        O  0.13808100  0.74060928  0.44572211    -0.60700
In340      In  0.03779204  0.55013636  0.45701580     1.36900
C341        C  0.99788459  0.50399732  0.51399796     0.77000
O342        O  0.97952969  0.58111462  0.44744207    -0.61500
O343        O  0.01596222  0.57389742  0.39056476    -0.52400
C344        C  0.09175184  0.60502386  0.47630917     0.69600
O345        O  0.10049625  0.56976806  0.47555435    -0.47300
C346        C  0.07576675  0.00108902  0.40264331     0.74300
O347        O  0.01928886  0.53123115  0.52795959    -0.59100
O348        O  0.04487042  0.52153029  0.39126234    -0.49200
O349        O  0.99683679  0.50082271  0.47180216    -0.55500
C350        C  0.48135495  0.58558523  0.40783061     0.84500
O351        O  0.05512073  0.61185987  0.47198576    -0.57400
O352        O  0.08286057  0.50320100  0.44595724    -0.60700
C353        C  0.12398159  0.87668567  0.28233494    -0.03100
C354        C  0.11936618  0.86224184  0.79030538    -0.03100
C355        C  0.35021249  0.62105432  0.27740940    -0.03100
In356      In  0.19175477  0.54105732  0.96294980     1.36900
C357        C  0.23759676  0.50033942  0.02280501     0.77000
O358        O  0.17597779  0.48016402  0.94911105    -0.61500
O359        O  0.15367867  0.52296426  0.90371868    -0.52400
C360        C  0.13892511  0.59557418  0.98561712     0.69600
O361        O  0.17495087  0.60257778  0.97957334    -0.47300
C362        C  0.23905937  0.57066283  0.90205673     0.74300
O363        O  0.20332726  0.51272920  0.03215242    -0.59100
O364        O  0.20998716  0.54999653  0.89210813    -0.49200
O365        O  0.24920626  0.51106394  0.98467387    -0.55500
C366        C  0.15712335  0.98819752  0.91317637     0.84500
O367        O  0.13121520  0.56028965  0.98690762    -0.57400
O368        O  0.24301252  0.57816000  0.94374175    -0.60700
In369      In  0.05041516  0.67652273  0.95784327     1.36900
C370        C  0.00910801  0.72146018  0.01472506     0.77000
O371        O  0.08925116  0.72597520  0.94184242    -0.61500
O372        O  0.05311146  0.70317558  0.88906109    -0.52400
C373        C  0.10767820  0.62579922  0.98358908     0.69600
O374        O  0.11472348  0.66007658  0.97277978    -0.47300
C375        C  0.50070811  0.64001553  0.90650528     0.74300
O376        O  0.03260965  0.69507999  0.02860132    -0.59100
O377        O  0.03572503  0.64229570  0.89634256    -0.49200
O378        O  0.00668561  0.72454733  0.97244465    -0.55500
C379        C  0.07706859  0.72863921  0.90112771     0.84500
O380        O  0.07128939  0.61860568  0.98625631    -0.57400
O381        O  0.99226233  0.64814748  0.94671818    -0.60700
In382      In  0.44778869  0.79000938  0.10411078     1.36900
C383        C  0.48942023  0.74777216  0.04532007     0.77000
O384        O  0.50001318  0.82839980  0.11671842    -0.61500
O385        O  0.47956631  0.79362147  0.17063413    -0.52400
C386        C  0.39397451  0.84620601  0.08470297     0.69600
O387        O  0.38610672  0.81108902  0.08116015    -0.47300
C388        C  0.40709696  0.74068846  0.15275771     0.74300
O389        O  0.46531379  0.77400308  0.03245091    -0.59100
O390        O  0.41934462  0.77215861  0.16814023    -0.49200
O391        O  0.49244022  0.74379875  0.08747230    -0.55500
C392        C  0.50468537  0.81736130  0.15737056     0.84500
O393        O  0.42998971  0.85254681  0.09326331    -0.57400
O394        O  0.41396169  0.73571205  0.11141739    -0.60700
In395      In  0.30806742  0.93040977  0.10533650     1.36900
C396        C  0.26324165  0.97406190  0.04737514     0.77000
O397        O  0.25542318  0.89245529  0.11825385    -0.61500
O398        O  0.28505587  0.91998309  0.17328497    -0.52400
C399        C  0.36326165  0.87697392  0.08490509     0.69600
O400        O  0.32660560  0.87061319  0.08211222    -0.47300
C401        C  0.33747665  0.98409376  0.15804539     0.74300
O402        O  0.29550005  0.95838082  0.03587664    -0.59100
O403        O  0.33302755  0.95011441  0.17169236    -0.49200
O404        O  0.25329367  0.96569784  0.08684359    -0.55500
C405        C  0.25611352  0.90044850  0.15996774     0.84500
O406        O  0.37140753  0.91141309  0.09311084    -0.57400
O407        O  0.33175998  0.98934169  0.11603094    -0.60700
C408        C  0.36688019  0.61411050  0.78196978    -0.03100
C409        C  0.46988257  0.62410203  0.87595220    -0.06700
C410        C  0.47544309  0.62558565  0.82906604    -0.17900
C411        C  0.44377356  0.62055499  0.79800708     0.10500
C412        C  0.40441740  0.61595668  0.81418472    -0.06700
C413        C  0.40122293  0.60911092  0.86144554    -0.17900
C414        C  0.43299443  0.61270539  0.89183174     0.10500
S415        S  0.45458618  0.62496632  0.73850891    -0.32900
S416        S  0.42436491  0.60146143  0.95047514    -0.32900
H417        H  0.46217125  0.58488860  0.95852748     0.28500
H418        H  0.49585043  0.61925011  0.74284439     0.28500
H419        H  0.50422622  0.63321990  0.81656592     0.19100
H420        H  0.37424038  0.59919576  0.87596899     0.19100
C421        C  0.32800665  0.60671926  0.80919178    -0.06700
C422        C  0.30405719  0.57462331  0.79947356    -0.17900
C423        C  0.27526015  0.56212950  0.82902216     0.10500
C424        C  0.26679045  0.58392799  0.86767356    -0.06700
C425        C  0.28514035  0.61925995  0.87349247    -0.17900
C426        C  0.31433594  0.63176158  0.84392730     0.10500
S427        S  0.25304185  0.51637316  0.81701552    -0.32900
S428        S  0.33520971  0.67842384  0.85410596    -0.32900
H429        H  0.31069760  0.68970031  0.88960463     0.28500
H430        H  0.25956513  0.50169713  0.86114460     0.28500
H431        H  0.30858655  0.55743935  0.76978379     0.19100
H432        H  0.27682538  0.63687695  0.90183998     0.19100
C433        C  0.36233532  0.65403655  0.24416262    -0.06700
C434        C  0.36511994  0.64740037  0.19692894    -0.17900
C435        C  0.37657985  0.67546256  0.16623819     0.10500
C436        C  0.38866143  0.71151563  0.18212157    -0.06700
C437        C  0.38718310  0.71867357  0.22869010    -0.17900
C438        C  0.37446430  0.69096280  0.25972685     0.10500
S439        S  0.37627249  0.66215921  0.10736589    -0.32900
S440        S  0.37245126  0.70483047  0.31858318    -0.32900
H441        H  0.38020613  0.74411837  0.31286272     0.28500
H442        H  0.35469621  0.69514179  0.09318101     0.28500
H443        H  0.36031763  0.61967608  0.18247444     0.19100
H444        H  0.39684659  0.74619000  0.24115353     0.19100
C445        C  0.34244752  0.58228027  0.25178841    -0.06700
C446        C  0.36503501  0.54842704  0.26213366    -0.17900
C447        C  0.36430279  0.51635583  0.23393371     0.10500
C448        C  0.33898320  0.51677591  0.19556381    -0.06700
C449        C  0.31216436  0.54711112  0.18905932    -0.17900
C450        C  0.31191070  0.57863283  0.21771256     0.10500
S451        S  0.39725217  0.47660285  0.24796620    -0.32900
S452        S  0.27395981  0.61449759  0.20603429    -0.32900
H453        H  0.24728095  0.59077340  0.18243998     0.28500
H454        H  0.40705649  0.96503881  0.19675371     0.28500
H455        H  0.38435962  0.54651237  0.29167024     0.19100
H456        H  0.29069527  0.54585037  0.16126711     0.19100
C457        C  0.10350547  0.82830406  0.82026969    -0.06700
C458        C  0.09311131  0.79336425  0.79898908    -0.17900
C459        C  0.08526151  0.76002122  0.82393081     0.10500
C460        C  0.08705014  0.76122155  0.87167616    -0.06700
C461        C  0.09196708  0.79655211  0.89271842    -0.17900
C462        C  0.09572841  0.83021372  0.86764160     0.10500
S463        S  0.07593212  0.71675223  0.79264426    -0.32900
S464        S  0.07788384  0.87216679  0.89659451    -0.32900
H465        H  0.05290954  0.88373461  0.86005866     0.28500
H466        H  0.09870921  0.69288526  0.82210429     0.28500
H467        H  0.09362238  0.79143682  0.76242215     0.19100
H468        H  0.08803095  0.79862231  0.92895513     0.19100
C469        C  0.13021338  0.89639275  0.82178506    -0.06700
C470        C  0.10680021  0.93058759  0.82123353    -0.17900
C471        C  0.11368315  0.96030446  0.85172428     0.10500
C472        C  0.14490691  0.95673657  0.88373172    -0.06700
C473        C  0.16845480  0.92355950  0.88494665    -0.17900
C474        C  0.16179394  0.89347127  0.85490329     0.10500
S475        S  0.08297929  0.50348021  0.84430823    -0.32900
S476        S  0.19324026  0.85129527  0.86178613    -0.32900
H477        H  0.21482246  0.86253873  0.90061362     0.28500
H478        H  0.07987274  0.50685305  0.89152285     0.28500
H479        H  0.08117373  0.93386334  0.79895373     0.19100
H480        H  0.19286566  0.92161516  0.90933375     0.19100
C481        C  0.09228885  0.86131242  0.24725096    -0.06700
C482        C  0.08358535  0.82154791  0.24560485    -0.17900
C483        C  0.05549008  0.80664792  0.21544977     0.10500
C484        C  0.03575044  0.83118212  0.18410071    -0.06700
C485        C  0.04658765  0.86958581  0.18165264    -0.17900
C486        C  0.07466123  0.88490572  0.21198885     0.10500
S487        S  0.04753798  0.75552016  0.21749500    -0.32900
S488        S  0.08371776  0.93553512  0.20653234    -0.32900
H489        H  0.07026159  0.93989230  0.16133650     0.28500
H490        H  0.04171053  0.75145412  0.17048899     0.28500
H491        H  0.09952872  0.80085014  0.26668186     0.19100
H492        H  0.03154287  0.88816809  0.15700975     0.19100
C493        C  0.15951967  0.88591449  0.25110725    -0.06700
C494        C  0.17540389  0.85391729  0.22734776    -0.17900
C495        C  0.20707440  0.85705255  0.19793181     0.10500
C496        C  0.22345978  0.89313327  0.19046476    -0.06700
C497        C  0.20818849  0.92512431  0.21246135    -0.17900
C498        C  0.17623465  0.92282894  0.24148833     0.10500
S499        S  0.22656796  0.81381411  0.17315954    -0.32900
S500        S  0.15890660  0.96899972  0.26149555    -0.32900
H501        H  0.16929431  0.99069398  0.22322314     0.28500
H502        H  0.26590405  0.82629776  0.17039044     0.28500
H503        H  0.16384668  0.82550333  0.23316322     0.19100
H504        H  0.22125241  0.95286772  0.20598266     0.19100
C505        C  0.38652799  0.61622645  0.31198873    -0.06700
C506        C  0.38189046  0.62146627  0.35927747    -0.17900
C507        C  0.41202330  0.61293472  0.39135029     0.10500
C508        C  0.44935226  0.60040605  0.37665615    -0.06700
C509        C  0.45599065  0.59925115  0.33001708    -0.17900
C510        C  0.42584155  0.60723204  0.29772747     0.10500
S511        S  0.40193014  0.61906326  0.45074194    -0.32900
S512        S  0.43863733  0.60275576  0.23875779    -0.32900
H513        H  0.47995647  0.59889918  0.24476602     0.28500
H514        H  0.36040562  0.62214112  0.44623523     0.28500
H515        H  0.35487294  0.63342978  0.37212831     0.19100
H516        H  0.48490643  0.59040678  0.31857139     0.19100
C517        C  0.10908531  0.91038616  0.31225624    -0.06700
C518        C  0.13723602  0.92621078  0.34313478    -0.17900
C519        C  0.12818970  0.95686898  0.37136559     0.10500
C520        C  0.08927778  0.97135717  0.37145245    -0.06700
C521        C  0.06029169  0.95446005  0.34396193    -0.17900
C522        C  0.06875305  0.92302313  0.31655755     0.10500
S523        S  0.16807159  0.97758619  0.40422908    -0.32900
S524        S  0.02578216  0.89672919  0.29691412    -0.32900
H525        H  0.99872233  0.92782404  0.29594992     0.28500
H526        H  0.14963167  0.51264430  0.40334512     0.28500
H527        H  0.16759743  0.91616257  0.34329093     0.19100
H528        H  0.02981160  0.96406417  0.34699422     0.19100
C529        C  0.24621770  0.63941317  0.36230889    -0.06700
C530        C  0.25336381  0.66635964  0.32827105    -0.17900
C531        C  0.28458176  0.66203760  0.29825079     0.10500
C532        C  0.31063431  0.62910463  0.30292481    -0.06700
C533        C  0.29903788  0.59988394  0.33371426    -0.17900
C534        C  0.26814953  0.60503309  0.36381278     0.10500
S535        S  0.28554562  0.69782119  0.25322151    -0.32900
S536        S  0.25836205  0.56688127  0.40346794    -0.32900
H537        H  0.21767378  0.57526655  0.40717269     0.28500
H538        H  0.26449564  0.72717511  0.27504260     0.28500
H539        H  0.23469163  0.69187433  0.32603506     0.19100
H540        H  0.31622540  0.57344758  0.33656447     0.19100
C541        C  0.13538798  0.84557467  0.31939269    -0.06700
C542        C  0.10374393  0.83004789  0.34429828    -0.17900
C543        C  0.10905099  0.79933877  0.37452889     0.10500
C544        C  0.14731820  0.78434327  0.38260437    -0.06700
C545        C  0.17957884  0.80231480  0.36291741    -0.17900
C546        C  0.17468498  0.83375923  0.33346364     0.10500
S547        S  0.06553230  0.77896345  0.39889124    -0.32900
S548        S  0.21961639  0.85915478  0.32012132    -0.32900
H549        H  0.24368149  0.84445248  0.35592055     0.28500
H550        H  0.07708748  0.74064364  0.39127681     0.28500
H551        H  0.07379185  0.84018915  0.33770008     0.19100
H552        H  0.20923797  0.79182867  0.37136334     0.19100
C553        C  0.37562154  0.57965250  0.74889259    -0.06700
C554        C  0.37732094  0.58575462  0.70131545    -0.17900
C555        C  0.38283235  0.55606113  0.67072418     0.10500
C556        C  0.38994902  0.51846733  0.68684965    -0.06700
C557        C  0.39006056  0.51164965  0.73361175    -0.17900
C558        C  0.38314758  0.54111393  0.76468708     0.10500
S559        S  0.38332260  0.56902705  0.61155496    -0.32900
S560        S  0.38363983  0.52766877  0.82407113    -0.32900
H561        H  0.39030438  0.48798547  0.81943574     0.28500
H562        H  0.35473604  0.04373934  0.60056161     0.28500
H563        H  0.37610917  0.61415127  0.68658123     0.19100
H564        H  0.39612562  0.48277489  0.74594209     0.19100
C565        C  0.08565312  0.87398064  0.75386592    -0.06700
C566        C  0.04690199  0.85852198  0.75750247    -0.17900
C567        C  0.01747766  0.86291787  0.72382727     0.10500
C568        C  0.02451296  0.88574643  0.68563478    -0.06700
C569        C  0.06099210  0.90379500  0.68240146    -0.17900
C570        C  0.09039526  0.90045572  0.71669557     0.10500
S571        S  0.47260393  0.83582887  0.72724928    -0.32900
S572        S  0.12633953  0.93843116  0.71595828    -0.32900
H573        H  0.12542158  0.94535980  0.66895641     0.28500
H574        H  0.46432429  0.82939518  0.68104992     0.28500
H575        H  0.03806840  0.84295704  0.78722208     0.19100
H576        H  0.06468271  0.92421656  0.65500614     0.19100
C577        C  0.33699005  0.71080770  0.68967372    -0.06700
C578        C  0.36784061  0.71595854  0.72128198    -0.17900
C579        C  0.37799161  0.68773102  0.75411114     0.10500
C580        C  0.35708382  0.65194914  0.75417395    -0.06700
C581        C  0.32310130  0.64992711  0.72510545    -0.17900
C582        C  0.31331728  0.67813217  0.69309198     0.10500
S583        S  0.41388282  0.70220664  0.79696903    -0.32900
S584        S  0.26936094  0.67091102  0.65841202    -0.32900
H585        H  0.25539378  0.70902078  0.66165326     0.28500
H586        H  0.43134142  0.73199804  0.77226038     0.28500
H587        H  0.38364172  0.74280415  0.72059231     0.19100
H588        H  0.30494586  0.62453757  0.72536436     0.19100
C589        C  0.21387956  0.83461155  0.69584778    -0.06700
C590        C  0.19386551  0.80473145  0.71682256    -0.17900
C591        C  0.17061677  0.81133920  0.75459972     0.10500
C592        C  0.15816510  0.84982140  0.76430916    -0.06700
C593        C  0.18385263  0.87850051  0.74815810    -0.17900
C594        C  0.21102193  0.87158240  0.71396257     0.10500
S595        S  0.17743130  0.77470495  0.79818420    -0.32900
S596        S  0.24198070  0.91058033  0.69642353    -0.32900
H597        H  0.27534435  0.88790492  0.68633822     0.28500
H598        H  0.18174008  0.74327320  0.76901142     0.28500
H599        H  0.20097375  0.77547349  0.70740671     0.19100
H600        H  0.18359482  0.90675373  0.76281677     0.19100
In601      In  0.79628676  0.29567478  0.60349655     1.36900
C602        C  0.74966835  0.25428259  0.54711967     0.77000
O603        O  0.82050290  0.23623226  0.61473122    -0.61500
O604        O  0.82954493  0.27736020  0.66661609    -0.52400
C605        C  0.84939934  0.34924419  0.57959468     0.69600
O606        O  0.81278799  0.35640191  0.58186854    -0.47300
C607        C  0.74647775  0.32493249  0.66214468     0.74300
O608        O  0.78245557  0.26786898  0.53518996    -0.59100
O609        O  0.77252835  0.30003021  0.67216928    -0.49200
O610        O  0.73991795  0.26380503  0.58616558    -0.55500
C611        C  0.83179317  0.24271925  0.65491761     0.84500
O612        O  0.85811836  0.31413794  0.58406184    -0.57400
O613        O  0.74681100  0.33723914  0.62171933    -0.60700
In614      In  0.93503585  0.43246803  0.60043091     1.36900
C615        C  0.97575413  0.47798164  0.54396209     0.76600
O616        O  0.89980391  0.48661770  0.61007939    -0.61500
O617        O  0.92018076  0.45553844  0.66812360    -0.52400
C618        C  0.87987642  0.37957155  0.57878696     0.69600
O619        O  0.87166586  0.41469747  0.58311903    -0.47300
C620        C  0.99024303  0.39749071  0.65164738     0.74300
O621        O  0.95293207  0.45187990  0.52971434    -0.59100
O622        O  0.95659131  0.40671886  0.66593806    -0.49200
O623        O  0.97805359  0.48013043  0.58631049    -0.55500
C624        C  0.90342800  0.48556708  0.65266877     0.84500
O625        O  0.91653807  0.37224111  0.57974984    -0.57400
O626        O  0.99487829  0.40389215  0.60994261    -0.60700
In627      In  0.67773175  0.18953783  0.46063743     1.36900
C628        C  0.72472751  0.22940138  0.51818665     0.77000
O629        O  0.72881329  0.15028127  0.44406227    -0.61500
O630        O  0.68913886  0.16988600  0.39114714    -0.52400
C631        C  0.62206882  0.13681493  0.47977987     0.69600
O632        O  0.65866147  0.13055654  0.48641745    -0.47300
C633        C  0.65280659  0.24964825  0.41206096     0.74300
O634        O  0.69189772  0.21583251  0.52987471    -0.59100
O635        O  0.67662378  0.22467628  0.39831073    -0.49200
O636        O  0.73442638  0.22019735  0.47907475    -0.55500
C637        C  0.72105601  0.15255561  0.40195195     0.84500
O638        O  0.61386481  0.17082933  0.46769976    -0.57400
O639        O  0.63908776  0.24312714  0.45080863    -0.60700
In640      In  0.53801598  0.05131394  0.46054806     1.36900
C641        C  0.49699877  0.00529770  0.51656047     0.77000
O642        O  0.47851036  0.08002440  0.45036808    -0.61500
O643        O  0.51648756  0.07582213  0.39445389    -0.52400
C644        C  0.59175557  0.10624663  0.48037382     0.69600
O645        O  0.60028578  0.07091503  0.48129254    -0.47300
C646        C  0.57081313  0.50011399  0.40481911     0.74300
O647        O  0.51679923  0.03357192  0.53081631    -0.59100
O648        O  0.54720633  0.02465752  0.39400647    -0.49200
O649        O  0.49843407  0.00080334  0.47460222    -0.55500
C650        C  0.98536739  0.08420225  0.40925421     0.84500
O651        O  0.55525970  0.11317774  0.47475613    -0.57400
O652        O  0.58217601  0.00323380  0.44970170    -0.60700
C653        C  0.62324990  0.37712018  0.28448716    -0.03100
C654        C  0.62065789  0.36365944  0.78801324    -0.03100
C655        C  0.85268915  0.12166550  0.28139051    -0.03100
In656      In  0.69284327  0.04228736  0.95796599     1.36900
C657        C  0.73807593  0.00052901  0.01771439     0.77000
O658        O  0.67747589  0.98124730  0.94430629    -0.61500
O659        O  0.65858649  0.02342410  0.89615896    -0.52400
C660        C  0.63912750  0.09604336  0.98215764     0.69600
O661        O  0.67552741  0.10287001  0.97941412    -0.47300
C662        C  0.73997429  0.07287681  0.89718150     0.74300
O663        O  0.70172862  0.00776135  0.02348984    -0.59100
O664        O  0.71085471  0.05232386  0.88707199    -0.49200
O665        O  0.75189528  0.01707824  0.98362187    -0.55500
C666        C  0.65694092  0.49008894  0.91113186     0.84500
O667        O  0.63106222  0.06100506  0.97883667    -0.57400
O668        O  0.74412701  0.07961410  0.93903943    -0.60700
In669      In  0.55130837  0.17837871  0.95754860     1.36900
C670        C  0.51067059  0.22299855  0.01532846     0.77000
O671        O  0.59061423  0.22752879  0.94077195    -0.61500
O672        O  0.55338684  0.20540130  0.88865601    -0.52400
C673        C  0.60814454  0.12659487  0.98169618     0.69600
O674        O  0.61547948  0.16128057  0.97317301    -0.47300
C675        C  0.00221976  0.13845017  0.90595541     0.74300
O676        O  0.53443038  0.19664829  0.02870900    -0.59100
O677        O  0.53579014  0.14326353  0.89712707    -0.49200
O678        O  0.50771409  0.22626578  0.97308101    -0.55500
C679        C  0.57795086  0.23049733  0.90027659     0.84500
O680        O  0.57169322  0.11951545  0.98343158    -0.57400
O681        O  0.49282706  0.15010055  0.94791685    -0.60700
In682      In  0.94807651  0.28970960  0.10338914     1.36900
C683        C  0.98948658  0.24754139  0.04432250     0.77000
O684        O  0.00008892  0.32845171  0.11492674    -0.61500
O685        O  0.98111387  0.29223279  0.16851565    -0.52400
C686        C  0.89414773  0.34634838  0.08595303     0.69600
O687        O  0.88648541  0.31133410  0.08053837    -0.47300
C688        C  0.90910569  0.24090385  0.15467215     0.74300
O689        O  0.96477498  0.27324819  0.03150886    -0.59100
O690        O  0.92324451  0.27180185  0.16941428    -0.49200
O691        O  0.99313294  0.24403839  0.08643539    -0.55500
C692        C  0.00560784  0.31650659  0.15516641     0.84500
O693        O  0.93002877  0.35249452  0.09553483    -0.57400
O694        O  0.91293508  0.23635661  0.11264828    -0.60700
In695      In  0.80804869  0.43066072  0.10736550     1.36900
C696        C  0.76383168  0.47366214  0.04759124     0.77000
O697        O  0.75510380  0.39342982  0.12176174    -0.61500
O698        O  0.78549586  0.42114017  0.17597896    -0.52400
C699        C  0.86334289  0.37711246  0.08676128     0.69600
O700        O  0.82666469  0.37071934  0.08434430    -0.47300
C701        C  0.83681244  0.48485833  0.15986258     0.74300
O702        O  0.79625378  0.45775408  0.03700428    -0.59100
O703        O  0.83523954  0.45039533  0.17285371    -0.49200
O704        O  0.75340835  0.46574717  0.08704647    -0.55500
C705        C  0.75627359  0.40173030  0.16338087     0.84500
O706        O  0.87146093  0.41159201  0.09489748    -0.57400
O707        O  0.82891749  0.49045437  0.11833503    -0.60700
C708        C  0.87003783  0.11468446  0.77962980    -0.03100
C709        C  0.97215416  0.12223573  0.87487387    -0.06700
C710        C  0.97825603  0.12440490  0.82816640    -0.17900
C711        C  0.94688929  0.12002951  0.79662101     0.10500
C712        C  0.90735743  0.11540008  0.81221798    -0.06700
C713        C  0.90375431  0.10734656  0.85918148    -0.17900
C714        C  0.93521134  0.11043427  0.89005117     0.10500
S715        S  0.95841288  0.12555567  0.73746633    -0.32900
S716        S  0.92615042  0.09831956  0.94837548    -0.32900
H717        H  0.96444561  0.08312116  0.95715099     0.28500
H718        H  0.99944813  0.11846666  0.74221285     0.28500
H719        H  0.00715257  0.13234734  0.81624263     0.19100
H720        H  0.87658376  0.09721164  0.87307600     0.19100
C721        C  0.83068253  0.10837256  0.80631693    -0.06700
C722        C  0.80481299  0.07827795  0.79439316    -0.17900
C723        C  0.77454274  0.06666966  0.82248190     0.10500
C724        C  0.76769722  0.08670712  0.86292253    -0.06700
C725        C  0.78826976  0.12058320  0.87102791    -0.17900
C726        C  0.81807468  0.13283735  0.84209622     0.10500
S727        S  0.74788737  0.02437259  0.80575258    -0.32900
S728        S  0.84105778  0.17818291  0.85437672    -0.32900
H729        H  0.81634879  0.18969429  0.88959959     0.28500
H730        H  0.75550783  0.00502085  0.84712412     0.28500
H731        H  0.80872510  0.06214079  0.76374791     0.19100
H732        H  0.78118111  0.13726498  0.90058143     0.19100
C733        C  0.86601539  0.15467850  0.24842927    -0.06700
C734        C  0.86568736  0.14898676  0.20077600    -0.17900
C735        C  0.87636507  0.17707148  0.16975457     0.10500
C736        C  0.89194253  0.21187375  0.18528620    -0.06700
C737        C  0.89531696  0.21757292  0.23211520    -0.17900
C738        C  0.88288443  0.19017725  0.26360350     0.10500
S739        S  0.87004750  0.16556501  0.11064679    -0.32900
S740        S  0.89143860  0.20367147  0.32189530    -0.32900
H741        H  0.85464326  0.19273674  0.33784161     0.28500
H742        H  0.84952296  0.20005835  0.10011305     0.28500
H743        H  0.85863263  0.12197415  0.18574926     0.19100
H744        H  0.90836092  0.24379347  0.24470620     0.19100
C745        C  0.84276368  0.08365540  0.25478981    -0.06700
C746        C  0.86477503  0.04914196  0.26288936    -0.17900
C747        C  0.86337181  0.01838182  0.23279267     0.10500
C748        C  0.83664298  0.01987972  0.19562436    -0.06700
C749        C  0.80971093  0.05057230  0.19191439    -0.17900
C750        C  0.81124634  0.08163216  0.22154450     0.10500
S751        S  0.89802396  0.97918606  0.24246879    -0.32900
S752        S  0.77457100  0.11940252  0.21243340    -0.32900
H753        H  0.75690676  0.10577028  0.17223046     0.28500
H754        H  0.90861311  0.46933308  0.19573485     0.28500
H755        H  0.88483433  0.04597210  0.29163957     0.19100
H756        H  0.78697177  0.04998821  0.16548440     0.19100
C757        C  0.60504784  0.32983898  0.81851308    -0.06700
C758        C  0.59475931  0.29469273  0.79758582    -0.17900
C759        C  0.58669573  0.26151419  0.82284261     0.10500
C760        C  0.58822887  0.26297215  0.87058531    -0.06700
C761        C  0.59340851  0.29841695  0.89131352    -0.17900
C762        C  0.59739919  0.33197142  0.86595576     0.10500
S763        S  0.57755266  0.21799032  0.79200304    -0.32900
S764        S  0.58027377  0.37421985  0.89489905    -0.32900
H765        H  0.55542225  0.38611765  0.85840703     0.28500
H766        H  0.59979070  0.19426831  0.82215196     0.28500
H767        H  0.59554155  0.29247545  0.76105427     0.19100
H768        H  0.58953285  0.30067641  0.92754457     0.19100
C769        C  0.63131160  0.39828339  0.81893167    -0.06700
C770        C  0.60834899  0.43277958  0.81719716    -0.17900
C771        C  0.61505765  0.46285629  0.84735665     0.10500
C772        C  0.64508896  0.45896570  0.88086289    -0.06700
C773        C  0.66846491  0.42569961  0.88274385    -0.17900
C774        C  0.66253861  0.39567169  0.85249685     0.10500
S775        S  0.58600527  0.00336260  0.83927524    -0.32900
S776        S  0.69459469  0.35401696  0.85978302    -0.32900
H777        H  0.71263470  0.36379304  0.90140399     0.28500
H778        H  0.58404279  0.00800339  0.88644012     0.28500
H779        H  0.58335232  0.43620181  0.79402877     0.19100
H780        H  0.69242054  0.42369314  0.90770937     0.19100
C781        C  0.59269432  0.36210906  0.24805140    -0.06700
C782        C  0.58499084  0.32224482  0.24506293    -0.17900
C783        C  0.55819487  0.30738708  0.21360465     0.10500
C784        C  0.53843282  0.33215590  0.18266970    -0.06700
C785        C  0.54855443  0.37081959  0.18121245    -0.17900
C786        C  0.57568074  0.38611982  0.21276793     0.10500
S787        S  0.55166692  0.25601735  0.21366503    -0.32900
S788        S  0.58488602  0.43693421  0.20888018    -0.32900
H789        H  0.56201289  0.44508208  0.16950838     0.28500
H790        H  0.54590389  0.25310881  0.16651151     0.28500
H791        H  0.60084655  0.30144744  0.26608172     0.19100
H792        H  0.53368031  0.38938770  0.15644718     0.19100
C793        C  0.65958324  0.38667515  0.25451452    -0.06700
C794        C  0.67554090  0.35497173  0.23028796    -0.17900
C795        C  0.70716115  0.35835589  0.20095787     0.10500
C796        C  0.72413083  0.39431221  0.19464514    -0.06700
C797        C  0.70949583  0.42596365  0.21797093    -0.17900
C798        C  0.67738632  0.42341068  0.24691886     0.10500
S799        S  0.72535099  0.31551835  0.17410345    -0.32900
S800        S  0.65988583  0.46925462  0.26758393    -0.32900
H801        H  0.69685706  0.48752413  0.26862578     0.28500
H802        H  0.76502284  0.32710394  0.17188673     0.28500
H803        H  0.66376847  0.32654830  0.23521930     0.19100
H804        H  0.72236718  0.45378746  0.21150750     0.19100
C805        C  0.88897935  0.11476814  0.31541267    -0.06700
C806        C  0.88506411  0.11958789  0.36290675    -0.17900
C807        C  0.91578645  0.11121969  0.39426475     0.10500
C808        C  0.95271531  0.09844750  0.37869334    -0.06700
C809        C  0.95836738  0.09666229  0.33189435    -0.17900
C810        C  0.92782156  0.10508091  0.30029788     0.10500
S811        S  0.90722846  0.11838704  0.45386913    -0.32900
S812        S  0.93953237  0.10052811  0.24101531    -0.32900
H813        H  0.98105541  0.10095237  0.24620387     0.28500
H814        H  0.86584476  0.12359355  0.45060292     0.28500
H815        H  0.85836085  0.13151817  0.37651746     0.19100
H816        H  0.98684394  0.08719147  0.31972693     0.19100
C817        C  0.60705804  0.41025367  0.31449102    -0.06700
C818        C  0.63405716  0.42556863  0.34698131    -0.17900
C819        C  0.62387196  0.45542562  0.37584109     0.10500
C820        C  0.58494434  0.46990667  0.37455754    -0.06700
C821        C  0.55684798  0.45324402  0.34564404    -0.17900
C822        C  0.56639961  0.42237336  0.31773394     0.10500
S823        S  0.66245586  0.47503093  0.41157680    -0.32900
S824        S  0.52422200  0.39616289  0.29561186    -0.32900
H825        H  0.49646973  0.42666393  0.29572142     0.28500
H826        H  0.65089837  0.01206972  0.41121125     0.28500
H827        H  0.66445618  0.41562610  0.34819024     0.19100
H828        H  0.52624675  0.46274329  0.34762816     0.19100
C829        C  0.74946789  0.14152526  0.36732544    -0.06700
C830        C  0.75819299  0.16939467  0.33490624    -0.17900
C831        C  0.78943620  0.16484379  0.30495846     0.10500
C832        C  0.81379416  0.13068075  0.30783398    -0.06700
C833        C  0.80097727  0.10109289  0.33749459    -0.17900
C834        C  0.77006354  0.10642110  0.36755120     0.10500
S835        S  0.79353520  0.20284134  0.26310228    -0.32900
S836        S  0.75825802  0.06743188  0.40523114    -0.32900
H837        H  0.71789555  0.07720705  0.40901325     0.28500
H838        H  0.77656000  0.23246534  0.28865533     0.28500
H839        H  0.74067351  0.19570768  0.33379704     0.19100
H840        H  0.81704992  0.07397073  0.33925643     0.19100
C841        C  0.63385063  0.34555193  0.32134297    -0.06700
C842        C  0.60158499  0.32935173  0.34465070    -0.17900
C843        C  0.60635040  0.29851421  0.37483829     0.10500
C844        C  0.64457240  0.28426588  0.38469579    -0.06700
C845        C  0.67720962  0.30252832  0.36630718    -0.17900
C846        C  0.67291168  0.33384414  0.33651458     0.10500
S847        S  0.56240965  0.27706983  0.39695003    -0.32900
S848        S  0.71795848  0.35968617  0.32452851    -0.32900
H849        H  0.74544733  0.33536647  0.34743888     0.28500
H850        H  0.57650815  0.23895515  0.39504822     0.28500
H851        H  0.57170092  0.33913367  0.33683973     0.19100
H852        H  0.70659777  0.29231781  0.37634706     0.19100
C853        C  0.87823217  0.08006496  0.74658969    -0.06700
C854        C  0.88216810  0.08642746  0.69929377    -0.17900
C855        C  0.88853676  0.05681280  0.66876765     0.10500
C856        C  0.89288910  0.01881492  0.68465898    -0.06700
C857        C  0.89026894  0.01163023  0.73117399    -0.17900
C858        C  0.88344693  0.04117409  0.76222060     0.10500
S859        S  0.89445499  0.07022868  0.61030449    -0.32900
S860        S  0.88065535  0.02728976  0.82125780    -0.32900
H861        H  0.89428597  0.98916138  0.81746766     0.28500
H862        H  0.85827138  0.54606362  0.59487549     0.28500
H863        H  0.88238925  0.11499433  0.68497055     0.19100
H864        H  0.89398227  0.98237318  0.74334170     0.19100
C865        C  0.58664844  0.37478388  0.75143762    -0.06700
C866        C  0.54791530  0.35938017  0.75590490    -0.17900
C867        C  0.51796810  0.36353800  0.72274479     0.10500
C868        C  0.52430192  0.38625579  0.68427969    -0.06700
C869        C  0.56090930  0.40373389  0.67977656    -0.17900
C870        C  0.59092993  0.40052120  0.71336721     0.10500
S871        S  0.96967555  0.34031207  0.73290336    -0.32900
S872        S  0.62679180  0.43836446  0.71026160    -0.32900
H873        H  0.62797579  0.44042963  0.66270102     0.28500
H874        H  0.96073661  0.33267645  0.68713040     0.28500
H875        H  0.53943923  0.34410829  0.78597902     0.19100
H876        H  0.56429750  0.42387615  0.65200606     0.19100
C877        C  0.84194521  0.21187441  0.68749341    -0.06700
C878        C  0.87294504  0.21659620  0.71903499    -0.17900
C879        C  0.88242556  0.18835097  0.75217346     0.10500
C880        C  0.86127188  0.15267537  0.75174977    -0.06700
C881        C  0.82762349  0.15093671  0.72215179    -0.17900
C882        C  0.81782408  0.17958049  0.69085758     0.10500
S883        S  0.91829417  0.20214438  0.79547546    -0.32900
S884        S  0.77281893  0.17374787  0.65754288    -0.32900
H885        H  0.75972206  0.21199563  0.66237699     0.28500
H886        H  0.92707352  0.23901892  0.77908584     0.28500
H887        H  0.88932045  0.24308901  0.71794335     0.19100
H888        H  0.80928143  0.12570905  0.72184859     0.19100
C889        C  0.71685044  0.33584764  0.69537611    -0.06700
C890        C  0.69818958  0.30592375  0.71787568    -0.17900
C891        C  0.67376846  0.31286869  0.75463688     0.10500
C892        C  0.65968598  0.35128623  0.76231661    -0.06700
C893        C  0.68457539  0.38023940  0.74522044    -0.17900
C894        C  0.71203013  0.37333470  0.71133904     0.10500
S895        S  0.67910210  0.27673774  0.79908655    -0.32900
S896        S  0.74058157  0.41322910  0.69128726    -0.32900
H897        H  0.77470289  0.39190083  0.68062973     0.28500
H898        H  0.68839193  0.24530883  0.77149845     0.28500
H899        H  0.70659663  0.27667179  0.70985906     0.19100
H900        H  0.68344655  0.40881509  0.75892645     0.19100
In901      In  0.79821659  0.79468209  0.60053075     1.36900
C902        C  0.75213706  0.75281644  0.54357975     0.77000
O903        O  0.82113046  0.73470529  0.61262248    -0.61500
O904        O  0.82949941  0.77551186  0.66484758    -0.52400
C905        C  0.85140908  0.84992253  0.57945267     0.69600
O906        O  0.81474078  0.85654232  0.58182046    -0.47300
C907        C  0.74697224  0.82199905  0.65874477     0.74300
O908        O  0.78810951  0.75961699  0.53587882    -0.59100
O909        O  0.77265511  0.79664179  0.66860596    -0.49200
O910        O  0.73914451  0.77053495  0.57699299    -0.55500
C911        C  0.83189741  0.74089138  0.65301247     0.84500
O912        O  0.86014794  0.81472133  0.58187387    -0.57400
O913        O  0.74825938  0.83537400  0.61883253    -0.60700
In914      In  0.93724486  0.93373707  0.60277267     1.36900
C915        C  0.97877688  0.97825950  0.54566404     0.76600
O916        O  0.89904356  0.98612246  0.61291679    -0.61500
O917        O  0.92592027  0.95900747  0.67052179    -0.52400
C918        C  0.88183958  0.88059224  0.58040311     0.69600
O919        O  0.87354608  0.91554783  0.58624851    -0.47300
C920        C  0.99230390  0.89865626  0.65422740     0.74300
O921        O  0.95747137  0.95084445  0.53187976    -0.59100
O922        O  0.95777168  0.90570144  0.66749176    -0.49200
O923        O  0.97841645  0.98277365  0.58771617    -0.55500
C924        C  0.90563380  0.98700830  0.65514715     0.84500
O925        O  0.91857903  0.87358471  0.58096061    -0.57400
O926        O  0.99791520  0.90708024  0.61324268    -0.60700
In927      In  0.68022065  0.68515464  0.45981915     1.36900
C928        C  0.72718081  0.72627457  0.51651184     0.77000
O929        O  0.72801920  0.64285616  0.44071180    -0.61500
O930        O  0.68867193  0.66601755  0.38958378    -0.52400
C931        C  0.62306973  0.63407472  0.47925382     0.69600
O932        O  0.65912952  0.62783252  0.48963968    -0.47300
C933        C  0.65698576  0.74571947  0.41087529     0.74300
O934        O  0.69113991  0.72005110  0.52413892    -0.59100
O935        O  0.68548818  0.72410801  0.40090074    -0.49200
O936        O  0.73999947  0.70803262  0.48339240    -0.55500
C937        C  0.71953531  0.64642451  0.39888496     0.84500
O938        O  0.61620879  0.66736292  0.46394421    -0.57400
O939        O  0.63893787  0.73585321  0.44602152    -0.60700
In940      In  0.53697832  0.55048421  0.45869799     1.36900
C941        C  0.49608006  0.50560302  0.51583158     0.77000
O942        O  0.47750578  0.58009042  0.44987648    -0.61500
O943        O  0.51460346  0.57514305  0.39325868    -0.52400
C944        C  0.59187380  0.60432162  0.47914235     0.69600
O945        O  0.59883547  0.56885390  0.48387905    -0.47300
C946        C  0.57238929  0.00027566  0.40834563     0.74300
O947        O  0.51559741  0.53433146  0.52915223    -0.59100
O948        O  0.54532876  0.52450149  0.39137571    -0.49200
O949        O  0.49760096  0.50004849  0.47403893    -0.55500
C950        C  0.98313506  0.58553950  0.40521130     0.84500
O951        O  0.55625554  0.61209045  0.46891490    -0.57400
O952        O  0.58078090  0.50240225  0.44616188    -0.60700
C953        C  0.62286073  0.87615447  0.28853319    -0.03100
C954        C  0.62066314  0.86223372  0.78379065    -0.03100
C955        C  0.85035186  0.61949436  0.27678625    -0.03100
In956      In  0.69376833  0.54265275  0.95946585     1.36900
C957        C  0.73990751  0.49957061  0.01714606     0.77000
O958        O  0.66916351  0.48388133  0.95120106    -0.61500
O959        O  0.66011199  0.52418024  0.89750169    -0.52400
C960        C  0.64091347  0.59758692  0.98144490     0.69600
O961        O  0.67712043  0.60435484  0.97625052    -0.47300
C962        C  0.74196375  0.57194939  0.89917330     0.74300
O963        O  0.71007218  0.51872395  0.02988362    -0.59100
O964        O  0.71170594  0.55301856  0.88884847    -0.49200
O965        O  0.74725722  0.50415008  0.97596455    -0.55500
C966        C  0.66095124  0.98831256  0.90643740     0.84500
O967        O  0.63294089  0.56236446  0.98206733    -0.57400
O968        O  0.74682232  0.57802413  0.94112081    -0.60700
In969      In  0.55227299  0.67929188  0.95576710     1.36900
C970        C  0.51197136  0.72333768  0.01414637     0.77000
O971        O  0.58885698  0.73068237  0.94030374    -0.61500
O972        O  0.55553896  0.70511459  0.88694117    -0.52400
C973        C  0.60978719  0.62799272  0.97962479     0.69600
O974        O  0.61684387  0.66233790  0.96912180    -0.47300
C975        C  0.00065495  0.63607775  0.90785442     0.74300
O976        O  0.53606223  0.69717418  0.02716932    -0.59100
O977        O  0.53495902  0.64755124  0.89316675    -0.49200
O978        O  0.50848650  0.72667176  0.97195400    -0.55500
C979        C  0.57770991  0.73198065  0.89915047     0.84500
O980        O  0.57340696  0.62093207  0.98255125    -0.57400
O981        O  0.49403494  0.65047169  0.94648284    -0.60700
In982      In  0.94504177  0.79041147  0.10311939     1.36900
C983        C  0.98627952  0.74653214  0.04512486     0.77000
O984        O  0.99818570  0.82792527  0.11394154    -0.61500
O985        O  0.97710628  0.79527555  0.16938416    -0.52400
C986        C  0.89100470  0.84754042  0.08589062     0.69600
O987        O  0.88250613  0.81246261  0.08452478    -0.47300
C988        C  0.90552070  0.74068689  0.15241192     0.74300
O989        O  0.96215516  0.77255657  0.03160261    -0.59100
O990        O  0.92102957  0.77049896  0.16858884    -0.49200
O991        O  0.98929555  0.74349494  0.08734687    -0.55500
C992        C  0.00288030  0.81782389  0.15493812     0.84500
O993        O  0.92756705  0.85336800  0.09104965    -0.57400
O994        O  0.90844588  0.73770660  0.11006295    -0.60700
In995      In  0.80577126  0.93296785  0.10938130     1.36900
C996        C  0.76216526  0.97461096  0.04793084     0.77000
O997        O  0.75311879  0.89593162  0.12532983    -0.61500
O998        O  0.78372309  0.92438083  0.17881294    -0.52400
C999        C  0.86058214  0.87878807  0.08730801     0.69600
O1000       O  0.82386641  0.87277607  0.08629947    -0.47300
C1001       C  0.83164638  0.98842508  0.16307792     0.74300
O1002       O  0.79902506  0.96880492  0.04412609    -0.59100
O1003       O  0.83405567  0.95347590  0.17435322    -0.49200
O1004       O  0.74747171  0.95662178  0.08042612    -0.55500
C1005       C  0.75466302  0.90444415  0.16685585     0.84500
O1006       O  0.86903975  0.91328879  0.09471398    -0.57400
O1007       O  0.82007424  0.99445590  0.12274671    -0.60700
C1008       C  0.87010876  0.61297581  0.77844697    -0.03100
C1009       C  0.97077686  0.62024830  0.87617803    -0.06700
C1010       C  0.97775470  0.62177845  0.82959477    -0.17900
C1011       C  0.94685093  0.61767258  0.79732458     0.10500
C1012       C  0.90689485  0.61412976  0.81194722    -0.06700
C1013       C  0.90225122  0.60704840  0.85903745    -0.17900
C1014       C  0.93322644  0.60961062  0.89058054     0.10500
S1015       S  0.95960830  0.62163207  0.73835756    -0.32900
S1016       S  0.92276027  0.59804012  0.94872588    -0.32900
H1017       H  0.96052723  0.58202620  0.95856991     0.28500
H1018       H  0.00048928  0.61423981  0.74437407     0.28500
H1019       H  0.00709302  0.62883388  0.81829039     0.19100
H1020       H  0.87474819  0.59745712  0.87257562     0.19100
C1021       C  0.83070806  0.60638710  0.80504621    -0.06700
C1022       C  0.80701007  0.57393422  0.79651725    -0.17900
C1023       C  0.77855188  0.56188680  0.82680898     0.10500
C1024       C  0.76992566  0.58460783  0.86467478    -0.06700
C1025       C  0.78792096  0.62025321  0.86915350    -0.17900
C1026       C  0.81697775  0.63220308  0.83902015     0.10500
S1027       S  0.75701794  0.51543784  0.81702190    -0.32900
S1028       S  0.83819482  0.67892074  0.84798135    -0.32900
H1029       H  0.81299708  0.69135055  0.88231177     0.28500
H1030       H  0.76210258  0.50276192  0.86218304     0.28500
H1031       H  0.81166333  0.55604945  0.76745049     0.19100
H1032       H  0.77954637  0.63848161  0.89694429     0.19100
C1033       C  0.86173245  0.65323384  0.24398029    -0.06700
C1034       C  0.86281945  0.64745976  0.19639690    -0.17900
C1035       C  0.87429875  0.67562158  0.16578218     0.10500
C1036       C  0.88759850  0.71120440  0.18183985    -0.06700
C1037       C  0.88804824  0.71750075  0.22857725    -0.17900
C1038       C  0.87585486  0.68971020  0.25957934     0.10500
S1039       S  0.87342087  0.66274569  0.10678652    -0.32900
S1040       S  0.88150689  0.70409318  0.31798217    -0.32900
H1041       H  0.84495573  0.69142021  0.33271652     0.28500
H1042       H  0.85035725  0.69506598  0.09358082     0.28500
H1043       H  0.85699466  0.62014340  0.18135388     0.19100
H1044       H  0.89894618  0.74448269  0.24159801     0.19100
C1045       C  0.84279944  0.58088512  0.25047045    -0.06700
C1046       C  0.86641267  0.54742358  0.25927934    -0.17900
C1047       C  0.86656367  0.51622349  0.22971420     0.10500
C1048       C  0.84071782  0.51672053  0.19176884    -0.06700
C1049       C  0.81249898  0.54616565  0.18724813    -0.17900
C1050       C  0.81166520  0.57699275  0.21708527     0.10500
S1051       S  0.90149304  0.47758513  0.24136823    -0.32900
S1052       S  0.77232262  0.61198140  0.20772268    -0.32900
H1053       H  0.74739830  0.58954430  0.18015228     0.28500
H1054       H  0.90588959  0.97370929  0.19639884     0.28500
H1055       H  0.88615394  0.54533534  0.28843339     0.19100
H1056       H  0.79050037  0.54475563  0.16004559     0.19100
C1057       C  0.60447237  0.82926461  0.81481788    -0.06700
C1058       C  0.59479833  0.79363390  0.79490970    -0.17900
C1059       C  0.58715269  0.76104811  0.82122156     0.10500
C1060       C  0.58713689  0.76410331  0.86882030    -0.06700
C1061       C  0.59003877  0.80036060  0.88814913    -0.17900
C1062       C  0.59463999  0.83306128  0.86149899     0.10500
S1063       S  0.58136101  0.71616343  0.79204268    -0.32900
S1064       S  0.57607090  0.87634482  0.88712224    -0.32900
H1065       H  0.55317831  0.88716938  0.84859859     0.28500
H1066       H  0.60494614  0.69482745  0.82336402     0.28500
H1067       H  0.59637513  0.79045559  0.75853699     0.19100
H1068       H  0.58451111  0.80372145  0.92393449     0.19100
C1069       C  0.63240184  0.89667051  0.81448796    -0.06700
C1070       C  0.61061594  0.93178605  0.81253030    -0.17900
C1071       C  0.61832192  0.96176185  0.84253891     0.10500
C1072       C  0.64902463  0.95760875  0.87529891    -0.06700
C1073       C  0.67131867  0.92362897  0.87724493    -0.17900
C1074       C  0.66362897  0.89328156  0.84796339     0.10500
S1075       S  0.58309462  0.50468041  0.84255172    -0.32900
S1076       S  0.69300683  0.85001218  0.85682700    -0.32900
H1077       H  0.71757403  0.86246096  0.89270239     0.28500
H1078       H  0.58291492  0.51237140  0.88920538     0.28500
H1079       H  0.58535365  0.93551549  0.78979962     0.19100
H1080       H  0.69522463  0.92091674  0.90216631     0.19100
C1081       C  0.59184718  0.86100083  0.25244714    -0.06700
C1082       C  0.58410542  0.82110310  0.24936006    -0.17900
C1083       C  0.55661632  0.80626185  0.21851164     0.10500
C1084       C  0.53679843  0.83096704  0.18745862    -0.06700
C1085       C  0.54678933  0.86967203  0.18628374    -0.17900
C1086       C  0.57410723  0.88497754  0.21760173     0.10500
S1087       S  0.54950037  0.75498496  0.21944642    -0.32900
S1088       S  0.58234171  0.93586931  0.21372276    -0.32900
H1089       H  0.56820625  0.94124818  0.16892062     0.28500
H1090       H  0.54494525  0.75146724  0.17221861     0.28500
H1091       H  0.60039878  0.80021707  0.26978190     0.19100
H1092       H  0.53168941  0.88840637  0.16184579     0.19100
C1093       C  0.65855065  0.88681212  0.25811105    -0.06700
C1094       C  0.67556509  0.85554512  0.23411172    -0.17900
C1095       C  0.70798495  0.85970976  0.20605141     0.10500
C1096       C  0.72302030  0.89633525  0.19856571    -0.06700
C1097       C  0.70676293  0.92772491  0.22089346    -0.17900
C1098       C  0.67505993  0.92413820  0.25028464     0.10500
S1099       S  0.73067835  0.81700543  0.18358718    -0.32900
S1100       S  0.65640173  0.96942042  0.27142629    -0.32900
H1101       H  0.69257963  0.98907435  0.27113845     0.28500
H1102       H  0.76945172  0.83135197  0.18325763     0.28500
H1103       H  0.66465909  0.82678179  0.23919546     0.19100
H1104       H  0.71832089  0.95597925  0.21372264     0.19100
C1105       C  0.88708756  0.61478586  0.31066752    -0.06700
C1106       C  0.88299452  0.62006411  0.35799164    -0.17900
C1107       C  0.91380850  0.61268222  0.38949232     0.10500
C1108       C  0.95101478  0.60033305  0.37421103    -0.06700
C1109       C  0.95704903  0.59896600  0.32742940    -0.17900
C1110       C  0.92634026  0.60655940  0.29565811     0.10500
S1111       S  0.90464494  0.61976320  0.44900326    -0.32900
S1112       S  0.93829518  0.60253651  0.23637497    -0.32900
H1113       H  0.97981355  0.60209851  0.24169900     0.28500
H1114       H  0.86366697  0.62740794  0.44523990     0.28500
H1115       H  0.85588812  0.63130717  0.37129039     0.19100
H1116       H  0.98586579  0.59031047  0.31548952     0.19100
C1117       C  0.60701653  0.90878739  0.31951213    -0.06700
C1118       C  0.63446134  0.92408060  0.35158610    -0.17900
C1119       C  0.62479579  0.95422904  0.38031433     0.10500
C1120       C  0.58603362  0.96916950  0.37905872    -0.06700
C1121       C  0.55748131  0.95223637  0.35095256    -0.17900
C1122       C  0.56651473  0.92102022  0.32335178     0.10500
S1123       S  0.66382822  0.97362692  0.41560567    -0.32900
S1124       S  0.52413307  0.89466523  0.30212928    -0.32900
H1125       H  0.49602283  0.92479310  0.30366403     0.28500
H1126       H  0.64909808  0.51335725  0.40729369     0.28500
H1127       H  0.66481572  0.91409291  0.35237993     0.19100
H1128       H  0.52698409  0.96200006  0.35317897     0.19100
C1129       C  0.74658406  0.63479840  0.36298274    -0.06700
C1130       C  0.75269424  0.66186492  0.32875432    -0.17900
C1131       C  0.78379838  0.65842326  0.29852198     0.10500
C1132       C  0.81094541  0.62637220  0.30306069    -0.06700
C1133       C  0.80038641  0.59673011  0.33386459    -0.17900
C1134       C  0.76965978  0.60106819  0.36442663     0.10500
S1135       S  0.78564150  0.69614486  0.25591906    -0.32900
S1136       S  0.76185923  0.56294435  0.40477255    -0.32900
H1137       H  0.72106940  0.57025353  0.40947429     0.28500
H1138       H  0.74568421  0.70806052  0.25738919     0.28500
H1139       H  0.73418706  0.68752836  0.32740174     0.19100
H1140       H  0.81838440  0.57077956  0.33647388     0.19100
C1141       C  0.63467265  0.84420249  0.32447845    -0.06700
C1142       C  0.60322482  0.82690659  0.34805185    -0.17900
C1143       C  0.60903558  0.79461672  0.37582944     0.10500
C1144       C  0.64765300  0.78032843  0.38366987    -0.06700
C1145       C  0.67958161  0.79988724  0.36547187    -0.17900
C1146       C  0.67416032  0.83256208  0.33805497     0.10500
S1147       S  0.56576210  0.77125878  0.39693180    -0.32900
S1148       S  0.71841864  0.86003708  0.32727317    -0.32900
H1149       H  0.74548429  0.83901118  0.35496169     0.28500
H1150       H  0.57967689  0.73378984  0.38852526     0.28500
H1151       H  0.57308991  0.83671646  0.34171994     0.19100
H1152       H  0.70935506  0.78985007  0.37399828     0.19100
C1153       C  0.87887878  0.57852413  0.74533204    -0.06700
C1154       C  0.88195055  0.58501965  0.69792931    -0.17900
C1155       C  0.88709559  0.55552117  0.66702156     0.10500
C1156       C  0.89178544  0.51745347  0.68264808    -0.06700
C1157       C  0.89106014  0.51027044  0.72934171    -0.17900
C1158       C  0.88545734  0.53975704  0.76074996     0.10500
S1159       S  0.89018564  0.56930473  0.60826326    -0.32900
S1160       S  0.88639585  0.52601917  0.82002854    -0.32900
H1161       H  0.89675717  0.48705890  0.81527588     0.28500
H1162       H  0.86205582  0.04825129  0.59544026     0.28500
H1163       H  0.88211245  0.61358626  0.68363368     0.19100
H1164       H  0.89555403  0.48108770  0.74141598     0.19100
C1165       C  0.58654906  0.87341888  0.74733021    -0.06700
C1166       C  0.54795068  0.85761552  0.75167195    -0.17900
C1167       C  0.51819222  0.86110043  0.71832279     0.10500
C1168       C  0.52444602  0.88355159  0.67970013    -0.06700
C1169       C  0.56082118  0.90149411  0.67518868    -0.17900
C1170       C  0.59071935  0.89892530  0.70902490     0.10500
S1171       S  0.97148791  0.83811072  0.73167174    -0.32900
S1172       S  0.62606410  0.93723546  0.70583237    -0.32900
H1173       H  0.62751559  0.93893417  0.65827754     0.28500
H1174       H  0.96418523  0.83147897  0.68532892     0.28500
H1175       H  0.53932974  0.84247471  0.78175725     0.19100
H1176       H  0.56398298  0.92156618  0.64730279     0.19100
C1177       C  0.84200416  0.70983451  0.68544725    -0.06700
C1178       C  0.87318732  0.71444021  0.71675844    -0.17900
C1179       C  0.88300564  0.68607837  0.74956689     0.10500
C1180       C  0.86126492  0.65080005  0.75017555    -0.06700
C1181       C  0.82743770  0.64906530  0.72078006    -0.17900
C1182       C  0.81800514  0.67738726  0.68877205     0.10500
S1183       S  0.91953082  0.70006569  0.79181851    -0.32900
S1184       S  0.77392185  0.67073134  0.65409483    -0.32900
H1185       H  0.76033901  0.70896001  0.65741688     0.28500
H1186       H  0.94005558  0.72587065  0.76422390     0.28500
H1187       H  0.88944147  0.74104424  0.71605573     0.19100
H1188       H  0.80894273  0.62389946  0.72103934     0.19100
C1189       C  0.71704598  0.83286966  0.69162600    -0.06700
C1190       C  0.69879806  0.80318449  0.71494629    -0.17900
C1191       C  0.67374409  0.81055524  0.75104043     0.10500
C1192       C  0.65943342  0.84911598  0.75799326    -0.06700
C1193       C  0.68382681  0.87791824  0.73974226    -0.17900
C1194       C  0.71125711  0.87064298  0.70604199     0.10500
S1195       S  0.67835391  0.77417204  0.79517065    -0.32900
S1196       S  0.73888712  0.91050859  0.68436776    -0.32900
H1197       H  0.77432586  0.88982021  0.67785983     0.28500
H1198       H  0.67961644  0.74241904  0.76605928     0.28500
H1199       H  0.70786230  0.77386913  0.70809053     0.19100
H1200       H  0.68266137  0.90668841  0.75277880     0.19100
loop_ 
_geom_bond_atom_site_label_1 
_geom_bond_atom_site_label_2 
_geom_bond_distance 
_geom_bond_site_symmetry_2 
_ccdc_geom_bond_type 
In1           O3   2.238       .  S
In1           O4   2.246       .  S
In1          O12   2.283       .  S
In1           O6   2.287       .  S
In1           O8   2.292       .  S
In1           O9   2.205       .  S
In1          O10   2.273       .  S
In1          O13   2.264       .  S
C2            O8   1.266       .  A
C2           O10   1.255       .  A
C2           C28   1.485       .  S
O3           C11   1.261       .  A
O4           C11   1.259       .  A
C5           O12   1.259       .  A
C5            O6   1.259       .  A
C5           C18   1.486       .  S
C7            O9   1.258       .  A
C7           O13   1.266       .  A
C7          C289   1.464       .  S
C11         C277   1.468       .  S
In14         O16   2.241       .  S
In14         O17   2.228       .  S
In14         O25   2.283       .  S
In14         O19   2.282       .  S
In14         O21   2.289       .  S
In14         O22   2.232       .  S
In14         O23   2.259       .  S
In14         O26   2.252       .  S
C15          O21   1.268       .  A
C15          O23   1.254       .  A
C15         C941   1.481       .  S
O16          C24   1.263       .  A
O17          C24   1.260       .  A
C18          O25   1.260       .  A
C18          O19   1.259       .  A
C20          O22   1.260       .  A
C20          O26   1.263       .  A
C20         C868   1.477       .  S
C24         C556   1.480       .  S
In27         O29   2.261       .  S
In27         O30   2.212       .  S
In27         O38   2.267       .  S
In27         O32   2.293       .  S
In27         O34   2.295       .  S
In27         O35   2.210       .  S
In27         O36   2.271       .  S
In27         O39   2.270       .  S
C28          O34   1.263       .  A
C28          O36   1.253       .  A
O29          C37   1.267       .  A
O30          C37   1.261       .  A
C31          O38   1.259       .  A
C31          O32   1.264       .  A
C31          C44   1.487       .  S
C33          O35   1.255       .  A
C33          O39   1.264       .  A
C33         C244   1.474       .  S
C37         C229   1.473       .  S
In40         O42   2.253   1_455  S
In40         O43   2.224       .  S
In40         O51   2.277       .  S
In40         O45   2.292       .  S
In40         O47   2.290       .  S
In40         O48   2.212       .  S
In40         O49   2.270   1_545  S
In40         O52   2.256       .  S
C41          O47   1.266       .  A
C41          O49   1.254   1_545  A
C41         C915   1.483   1_445  S
O42         C650   1.264       .  A
O43         C650   1.261   1_455  A
C44          O51   1.259       .  A
C44          O45   1.260       .  A
C46         O348   1.258       .  A
C46         O352   1.263       .  A
C46         C220   1.466       .  S
O48         C346   1.257       .  A
C50         O642   1.264       .  A
C50         O643   1.261       .  A
C50         C208   1.486       .  S
O52         C346   1.264       .  A
C53         C181   1.571       .  S
C53         C193   1.567       .  S
C53         C217   1.559       .  S
C53         C241   1.574       .  S
C54         C157   1.574       .  S
C54         C169   1.559       .  S
C54         C265   1.599       .  S
C54         C292   1.592       .  S
C55         C133   1.577       .  S
C55         C145   1.581       .  S
C55         C205   1.582       .  S
C55         C232   1.573       .  S
In56         O58   2.234   1_545  S
In56         O59   2.231       .  S
In56         O67   2.263       .  S
In56         O61   2.272       .  S
In56         O63   2.278   1_556  S
In56         O64   2.208       .  S
In56         O65   2.265       .  S
In56         O68   2.252       .  S
C57          O63   1.267       .  A
C57          O65   1.256   1_554  A
C57         C396   1.480   1_545  S
O58         C366   1.260       .  A
O59         C366   1.258   1_545  A
C60          O67   1.259       .  A
C60          O61   1.259       .  A
C60          C73   1.476       .  S
C62          O64   1.256       .  A
C62          O68   1.266       .  A
C62         C124   1.471       .  S
C66         O358   1.260       .  A
C66         O359   1.258       .  A
C66         C172   1.473       .  S
In69         O71   2.234       .  S
In69         O72   2.226       .  S
In69         O80   2.263       .  S
In69         O74   2.270       .  S
In69         O76   2.278   1_556  S
In69         O77   2.226       .  S
In69         O78   2.260       .  S
In69         O81   2.224   1_455  S
C70          O76   1.264       .  A
C70          O78   1.253   1_554  A
C70         C683   1.475   1_455  S
O71          C79   1.264       .  A
O72          C79   1.255       .  A
C73          O80   1.260       .  A
C73          O74   1.261       .  A
C75         O677   1.260       .  A
C75         O681   1.263       .  A
C75         C109   1.475       .  S
O77         C675   1.261       .  A
C79         C160   1.468       .  S
O81         C675   1.264   1_655  A
In82         O84   2.250       .  S
In82         O85   2.209       .  S
In82         O93   2.268       .  S
In82         O87   2.289       .  S
In82         O89   2.289       .  S
In82         O90   2.239       .  S
In82         O91   2.256       .  S
In82         O94   2.231       .  S
C83          O89   1.267       .  A
C83          O91   1.254       .  A
C83         C670   1.480       .  S
O84          C92   1.264       .  A
O85          C92   1.260       .  A
C86          O93   1.258       .  A
C86          O87   1.260       .  A
C86          C99   1.482       .  S
C88          O90   1.261       .  A
C88          O94   1.261       .  A
C88         C136   1.485       .  S
C92         C784   1.467       .  S
In95         O97   2.259       .  S
In95         O98   2.205       .  S
In95        O106   2.265       .  S
In95        O100   2.289       .  S
In95        O102   2.290       .  S
In95        O103   2.237       .  S
In95        O104   2.269       .  S
In95        O107   2.226       .  S
C96         O102   1.266       .  A
C96         O104   1.255       .  A
C96         C357   1.483       .  S
O97         C105   1.266       .  A
O98         C105   1.257       .  A
C99         O106   1.257       .  A
C99         O100   1.261       .  A
C101        O103   1.258       .  A
C101        O107   1.262       .  A
C101        C448   1.462       .  S
C105        C196   1.463       .  S
C108        C112   1.569       .  S
C108        C121   1.575       .  S
C108        C253   1.583       .  S
C108        C280   1.576       .  S
C109        C110   1.401       .  A
C109        C114   1.401       .  A
C110        C111   1.405       .  A
C110        H119   1.083       .  S
C111        C112   1.432       .  A
C111        S115   1.808       .  S
C112        C113   1.423       .  A
C113        C114   1.390       .  A
C113        H120   1.076       .  S
C114        S116   1.805       .  S
S115        H118   1.407       .  S
S116        H117   1.408       .  S
C121        C122   1.414       .  A
C121        C126   1.434       .  A
C122        C123   1.391       .  A
C122        H131   1.079       .  S
C123        C124   1.410       .  A
C123        S127   1.805       .  S
C124        C125   1.396       .  A
C125        C126   1.403       .  A
C125        H132   1.083       .  S
C126        S128   1.806       .  S
S127        H130   1.408       .  S
S128        H129   1.406       .  S
C133        C134   1.423       .  A
C133        C138   1.439       .  A
C134        C135   1.392       .  A
C134        H143   1.071       .  S
C135        C136   1.406       .  A
C135        S139   1.804       .  S
C136        C137   1.401       .  A
C137        C138   1.403       .  A
C137        H144   1.084       .  S
C138        S140   1.807       .  S
S139        H142   1.408       .  S
S140        H141   1.393       .  S
C145        C146   1.422       .  A
C145        C150   1.434       .  A
C146        C147   1.402       .  A
C146        H155   1.079       .  S
C147        C148   1.405       .  A
C147        S151   1.804   1_545  S
C148        C401   1.468   1_545  S
C148        C149   1.393       .  A
C149        C150   1.396       .  A
C149        H156   1.084       .  S
C150        S152   1.806       .  S
S151        H454   1.407       .  S
S152        H153   1.406       .  S
H154        S451   1.406       .  S
C157        C158   1.419       .  A
C157        C162   1.433       .  A
C158        C159   1.401       .  A
C158        H167   1.084       .  S
C159        C160   1.411       .  A
C159        S163   1.803       .  S
C160        C161   1.393       .  A
C161        C162   1.390       .  A
C161        H168   1.085       .  S
C162        S164   1.804       .  S
S163        H166   1.407       .  S
S164        H165   1.407       .  S
C169        C170   1.419       .  A
C169        C174   1.432       .  A
C170        C171   1.400       .  A
C170        H179   1.079       .  S
C171        C172   1.409       .  A
C171        S475   1.802       .  S
C172        C173   1.395       .  A
C173        C174   1.394       .  A
C173        H180   1.083       .  S
C174        S176   1.807       .  S
S175        C471   1.804   1_545  S
S175        H178   1.407       .  S
S176        H177   1.406       .  S
C181        C182   1.419       .  A
C181        C186   1.437       .  A
C182        C183   1.391       .  A
C182        H191   1.078       .  S
C183        C184   1.404       .  A
C183        S187   1.806       .  S
C184        C692   1.465       .  S
C184        C185   1.392       .  A
C185        C186   1.402       .  A
C185        H192   1.083       .  S
C186        S188   1.803       .  S
S187        H190   1.407       .  S
S188        H189   1.406       .  S
C193        C194   1.427       .  A
C193        C198   1.440       .  A
C194        C195   1.394       .  A
C194        H203   1.081       .  S
C195        C196   1.396       .  A
C195        S199   1.803       .  S
C196        C197   1.396       .  A
C197        C198   1.401       .  A
C197        H204   1.083       .  S
C198        S200   1.815       .  S
S199        H202   1.406       .  S
S200        H201   1.406       .  S
C205        C206   1.423       .  A
C205        C210   1.432       .  A
C206        C207   1.399       .  A
C206        H215   1.075       .  S
C207        C208   1.407       .  A
C207        S211   1.810       .  S
C208        C209   1.402       .  A
C209        C210   1.403       .  A
C209        H216   1.083       .  S
C210        S212   1.810       .  S
S211        H214   1.408       .  S
S212        H213   1.407       .  S
C217        C218   1.419       .  A
C217        C222   1.435       .  A
C218        C219   1.395       .  A
C218        H227   1.077       .  S
C219        C220   1.401       .  A
C219        S223   1.803       .  S
C220        C221   1.397       .  A
C221        C222   1.398       .  A
C221        H228   1.083       .  S
C222        S224   1.815       .  S
S223        H526   1.407       .  S
S224        H225   1.407   1_455  S
H226        S523   1.407   1_545  S
C229        C230   1.397       .  A
C229        C234   1.401       .  A
C230        C231   1.399       .  A
C230        H239   1.083       .  S
C231        C232   1.438       .  A
C231        S235   1.814       .  S
C232        C233   1.425       .  A
C233        C234   1.400       .  A
C233        H240   1.083       .  S
C234        S236   1.803       .  S
S235        H238   1.407       .  S
S236        H237   1.407       .  S
C241        C242   1.420       .  A
C241        C246   1.437       .  A
C242        C243   1.396       .  A
C242        H251   1.079       .  S
C243        C244   1.403       .  A
C243        S247   1.802       .  S
C244        C245   1.398       .  A
C245        C246   1.400       .  A
C245        H252   1.083       .  S
C246        S248   1.817       .  S
S247        H250   1.407       .  S
S248        H249   1.406       .  S
C253        C254   1.422       .  A
C253        C258   1.435       .  A
C254        C255   1.392       .  A
C254        H263   1.077       .  S
C255        C256   1.405       .  A
C255        S259   1.802       .  S
C256        C324   1.480   1_545  S
C256        C257   1.400       .  A
C257        C258   1.405       .  A
C257        H264   1.083   1_545  S
C258        S260   1.811       .  S
S259        H562   1.408       .  S
S260        H261   1.406   1_545  S
H262        S559   1.408       .  S
C265        C266   1.429       .  A
C265        C270   1.440       .  A
C266        C267   1.397       .  A
C266        H275   1.079       .  S
C267        C268   1.402       .  A
C267        S871   1.806   1_455  S
C268        C620   1.476   1_455  S
C268        C269   1.393       .  A
C269        C270   1.403       .  A
C269        H276   1.084       .  S
C270        S272   1.801       .  S
S271        C867   1.805       .  S
S271        H274   1.408       .  S
S272        H273   1.408       .  S
C277        C278   1.396       .  A
C277        C282   1.401       .  A
C278        C279   1.410       .  A
C278        H287   1.083       .  S
C279        C280   1.442       .  A
C279        S283   1.811       .  S
C280        C281   1.421       .  A
C281        C282   1.387       .  A
C281        H288   1.082       .  S
C282        S284   1.806       .  S
S283        H286   1.407       .  S
S284        H285   1.407       .  S
C289        C290   1.394       .  A
C289        C294   1.401       .  A
C290        C291   1.398       .  A
C290        H299   1.085       .  S
C291        C292   1.438       .  A
C291        S295   1.812       .  S
C292        C293   1.418       .  A
C293        C294   1.399       .  A
C293        H300   1.078       .  S
C294        S296   1.807       .  S
S295        H298   1.408       .  S
S296        H297   1.404       .  S
In301       O303   2.241       .  S
In301       O304   2.243       .  S
In301       O312   2.285       .  S
In301       O306   2.297       .  S
In301       O308   2.292       .  S
In301       O309   2.205       .  S
In301       O310   2.272       .  S
In301       O313   2.275       .  S
C302        O308   1.265       .  A
C302        O310   1.254       .  A
C302        C328   1.483       .  S
O303        C311   1.261       .  A
O304        C311   1.261       .  A
C305        O312   1.259       .  A
C305        O306   1.261       .  A
C305        C318   1.491       .  S
C307        O309   1.255       .  A
C307        O313   1.266       .  A
C307        C589   1.466       .  S
C311        C577   1.471       .  S
In314       O316   2.236       .  S
In314       O317   2.235       .  S
In314       O325   2.288       .  S
In314       O319   2.293       .  S
In314       O321   2.293       .  S
In314       O322   2.220       .  S
In314       O323   2.264       .  S
In314       O326   2.251       .  S
C315        O321   1.268       .  A
C315        O323   1.254       .  A
C315        C641   1.483   1_565  S
O316        C324   1.262       .  A
O317        C324   1.260       .  A
C318        O325   1.260       .  A
C318        O319   1.260       .  A
C320        O322   1.260       .  A
C320        O326   1.264       .  A
C320       C1168   1.474       .  S
In327       O329   2.249       .  S
In327       O330   2.213       .  S
In327       O338   2.272       .  S
In327       O332   2.293       .  S
In327       O334   2.290       .  S
In327       O335   2.204       .  S
In327       O336   2.269       .  S
In327       O339   2.268       .  S
C328        O334   1.263       .  A
C328        O336   1.253       .  A
O329        C337   1.267       .  A
O330        C337   1.262       .  A
C331        O338   1.259       .  A
C331        O332   1.262       .  A
C331        C344   1.486       .  S
C333        O335   1.254       .  A
C333        O339   1.264       .  A
C333        C544   1.468       .  S
C337        C529   1.470       .  S
In340       O342   2.241   1_455  S
In340       O343   2.230       .  S
In340       O351   2.280       .  S
In340       O345   2.289       .  S
In340       O347   2.294       .  S
In340       O348   2.208       .  S
In340       O349   2.265   1_455  S
In340       O352   2.249       .  S
C341        O347   1.266   1_655  A
C341        O349   1.252       .  A
C341        C615   1.482       .  S
O342        C950   1.265       .  A
O343        C950   1.262   1_455  A
C344        O351   1.259       .  A
C344        O345   1.260       .  A
C346        C520   1.467   1_545  S
C350        O942   1.265       .  A
C350        O943   1.261       .  A
C350        C508   1.488       .  S
C353        C481   1.575       .  S
C353        C493   1.565       .  S
C353        C517   1.561       .  S
C353        C541   1.572       .  S
C354        C457   1.577       .  S
C354        C469   1.559       .  S
C354        C565   1.595       .  S
C354        C592   1.590       .  S
C355        C433   1.569       .  S
C355        C445   1.576       .  S
C355        C505   1.584       .  S
C355        C532   1.572       .  S
In356       O358   2.233       .  S
In356       O359   2.247       .  S
In356       O367   2.272       .  S
In356       O361   2.270       .  S
In356       O363   2.286   1_556  S
In356       O364   2.216       .  S
In356       O365   2.267       .  S
In356       O368   2.253       .  S
C357        O363   1.266       .  A
C357        O365   1.257   1_554  A
C360        O367   1.260       .  A
C360        O361   1.260       .  A
C360        C373   1.480       .  S
C362        O364   1.256       .  A
C362        O368   1.266       .  A
C362        C424   1.472       .  S
C366        C472   1.463       .  S
In369       O371   2.232       .  S
In369       O372   2.231       .  S
In369       O380   2.275       .  S
In369       O374   2.270       .  S
In369       O376   2.285   1_556  S
In369       O377   2.232       .  S
In369       O378   2.267       .  S
In369       O381   2.228   1_455  S
C370        O376   1.265       .  A
C370        O378   1.254   1_554  A
C370        C983   1.480   1_455  S
O371        C379   1.265       .  A
O372        C379   1.256       .  A
C373        O380   1.261       .  A
C373        O374   1.260       .  A
C375        O977   1.260       .  A
C375        O981   1.263       .  A
C375        C409   1.478       .  S
O377        C975   1.260       .  A
C379        C460   1.471       .  S
O381        C975   1.263   1_655  A
In382       O384   2.253       .  S
In382       O385   2.223       .  S
In382       O393   2.270       .  S
In382       O387   2.284       .  S
In382       O389   2.283       .  S
In382       O390   2.228       .  S
In382       O391   2.256       .  S
In382       O394   2.233       .  S
C383        O389   1.265       .  A
C383        O391   1.254       .  A
C383        C970   1.477       .  S
O384        C392   1.264       .  A
O385        C392   1.259       .  A
C386        O393   1.259       .  A
C386        O387   1.260       .  A
C386        C399   1.481       .  S
C388        O390   1.261       .  A
C388        O394   1.262       .  A
C388        C436   1.483       .  S
C392       C1084   1.472       .  S
In395       O397   2.266       .  S
In395       O398   2.198       .  S
In395       O406   2.267       .  S
In395       O400   2.283       .  S
In395       O402   2.292       .  S
In395       O403   2.233       .  S
In395       O404   2.260       .  S
In395       O407   2.235       .  S
C396        O402   1.266       .  A
C396        O404   1.254       .  A
O397        C405   1.266       .  A
O398        C405   1.256       .  A
C399        O406   1.259       .  A
C399        O400   1.261       .  A
C401        O403   1.259       .  A
C401        O407   1.263       .  A
C405        C496   1.463       .  S
C408        C412   1.569       .  S
C408        C421   1.577       .  S
C408        C553   1.583       .  S
C408        C580   1.574       .  S
C409        C410   1.403       .  A
C409        C414   1.401       .  A
C410        C411   1.406       .  A
C410        H419   1.083       .  S
C411        C412   1.432       .  A
C411        S415   1.809       .  S
C412        C413   1.421       .  A
C413        C414   1.390       .  A
C413        H420   1.075       .  S
C414        S416   1.804       .  S
S415        H418   1.407       .  S
S416        H417   1.408       .  S
C421        C422   1.416       .  A
C421        C426   1.433       .  A
C422        C423   1.393       .  A
C422        H431   1.079       .  S
C423        C424   1.410       .  A
C423        S427   1.805       .  S
C424        C425   1.395       .  A
C425        C426   1.403       .  A
C425        H432   1.083       .  S
C426        S428   1.805       .  S
S427        H430   1.408       .  S
S428        H429   1.406       .  S
C433        C434   1.422       .  A
C433        C438   1.431       .  A
C434        C435   1.392       .  A
C434        H443   1.072       .  S
C435        C436   1.407       .  A
C435        S439   1.804       .  S
C436        C437   1.402       .  A
C437        C438   1.404       .  A
C437        H444   1.081       .  S
C438        S440   1.812       .  S
S439        H442   1.408       .  S
S440        H441   1.406       .  S
C445        C446   1.423       .  A
C445        C450   1.432       .  A
C446        C447   1.400       .  A
C446        H455   1.079       .  S
C447        C448   1.404       .  A
C447        S451   1.804       .  S
C448        C449   1.391       .  A
C449        C450   1.392       .  A
C449        H456   1.084       .  S
C450        S452   1.803       .  S
S452        H453   1.407       .  S
C457        C458   1.419       .  A
C457        C462   1.432       .  A
C458        C459   1.401       .  A
C458        H467   1.084       .  S
C459        C460   1.412       .  A
C459        S463   1.802       .  S
C460        C461   1.394       .  A
C461        C462   1.390       .  A
C461        H468   1.085       .  S
C462        S464   1.803       .  S
S463        H466   1.407       .  S
S464        H465   1.407       .  S
C469        C470   1.420       .  A
C469        C474   1.432       .  A
C470        C471   1.396       .  A
C470        H479   1.079       .  S
C471        C472   1.403       .  A
C472        C473   1.394       .  A
C473        C474   1.397       .  A
C473        H480   1.083       .  S
C474        S476   1.808       .  S
S475        H478   1.407       .  S
S476        H477   1.406       .  S
C481        C482   1.421       .  A
C481        C486   1.435       .  A
C482        C483   1.395       .  A
C482        H491   1.079       .  S
C483        C484   1.405       .  A
C483        S487   1.805       .  S
C484        C992   1.472       .  S
C484        C485   1.393       .  A
C485        C486   1.403       .  A
C485        H492   1.083       .  S
C486        S488   1.800       .  S
S487        H490   1.407       .  S
S488        H489   1.407       .  S
C493        C494   1.427       .  A
C493        C498   1.440       .  A
C494        C495   1.398       .  A
C494        H503   1.082       .  S
C495        C496   1.397       .  A
C495        S499   1.803       .  S
C496        C497   1.394       .  A
C497        C498   1.396       .  A
C497        H504   1.085       .  S
C498        S500   1.813       .  S
S499        H502   1.406       .  S
S500        H501   1.408       .  S
C505        C506   1.423       .  A
C505        C510   1.433       .  A
C506        C507   1.401       .  A
C506        H515   1.076       .  S
C507        C508   1.407       .  A
C507        S511   1.809       .  S
C508        C509   1.402       .  A
C509        C510   1.402       .  A
C509        H516   1.082       .  S
C510        S512   1.812       .  S
S511        H514   1.407       .  S
S512        H513   1.406       .  S
C517        C518   1.422       .  A
C517        C522   1.434       .  A
C518        C519   1.396       .  A
C518        H527   1.078       .  S
C519        C520   1.401       .  A
C519        S523   1.804       .  S
C520        C521   1.397       .  A
C521        C522   1.398       .  A
C521        H528   1.083       .  S
C522        S524   1.812       .  S
S524        H525   1.407   1_455  S
C529        C530   1.397       .  A
C529        C534   1.399       .  A
C530        C531   1.400       .  A
C530        H539   1.083       .  S
C531        C532   1.440       .  A
C531        S535   1.816       .  S
C532        C533   1.424       .  A
C533        C534   1.396       .  A
C533        H540   1.083       .  S
C534        S536   1.803       .  S
S535        H538   1.407       .  S
S536        H537   1.407       .  S
C541        C542   1.421       .  A
C541        C546   1.435       .  A
C542        C543   1.395       .  A
C542        H551   1.079       .  S
C543        C544   1.401       .  A
C543        S547   1.802       .  S
C544        C545   1.399       .  A
C545        C546   1.399       .  A
C545        H552   1.084       .  S
C546        S548   1.815       .  S
S547        H550   1.407       .  S
S548        H549   1.407       .  S
C553        C554   1.422       .  A
C553        C558   1.435       .  A
C554        C555   1.393       .  A
C554        H563   1.077       .  S
C555        C556   1.405       .  A
C555        S559   1.802       .  S
C556        C557   1.400       .  A
C557        C558   1.404       .  A
C557        H564   1.082       .  S
C558        S560   1.812       .  S
S560        H561   1.406       .  S
C565        C566   1.427       .  A
C565        C570   1.441       .  A
C566        C567   1.396       .  A
C566        H575   1.078       .  S
C567        C568   1.401       .  A
C567       S1171   1.805   1_455  S
C568        C920   1.476   1_455  S
C568        C569   1.395       .  A
C569        C570   1.405       .  A
C569        H576   1.083       .  S
C570        S572   1.807       .  S
S571       C1167   1.806       .  S
S571        H574   1.408       .  S
S572        H573   1.407       .  S
C577        C578   1.397       .  A
C577        C582   1.403       .  A
C578        C579   1.409       .  A
C578        H587   1.083       .  S
C579        C580   1.440       .  A
C579        S583   1.812       .  S
C580        C581   1.420       .  A
C581        C582   1.389       .  A
C581        H588   1.083       .  S
C582        S584   1.805       .  S
S583        H586   1.407       .  S
S584        H585   1.408       .  S
C589        C590   1.396       .  A
C589        C594   1.402       .  A
C590        C591   1.398       .  A
C590        H599   1.084       .  S
C591        C592   1.433       .  A
C591        S595   1.814       .  S
C592        C593   1.418       .  A
C593        C594   1.400       .  A
C593        H600   1.079       .  S
C594        S596   1.804       .  S
S595        H598   1.407       .  S
S596        H597   1.406       .  S
In601       O603   2.235       .  S
In601       O604   2.238       .  S
In601       O612   2.276       .  S
In601       O606   2.284       .  S
In601       O608   2.287       .  S
In601       O609   2.205       .  S
In601       O610   2.266       .  S
In601       O613   2.273       .  S
C602        O608   1.265       .  A
C602        O610   1.253       .  A
C602        C628   1.480       .  S
O603        C611   1.262       .  A
O604        C611   1.260       .  A
C605        O612   1.259       .  A
C605        O606   1.261       .  A
C605        C618   1.484       .  S
C607        O609   1.256       .  A
C607        O613   1.266       .  A
C607        C889   1.466       .  S
C611        C877   1.468       .  S
In614       O616   2.240       .  S
In614       O617   2.227       .  S
In614       O625   2.281       .  S
In614       O619   2.282       .  S
In614       O621   2.287       .  S
In614       O622   2.229       .  S
In614       O623   2.262       .  S
In614       O626   2.250       .  S
C615        O621   1.268       .  A
C615        O623   1.255       .  A
O616        C624   1.262       .  A
O617        C624   1.259       .  A
C618        O625   1.260       .  A
C618        O619   1.259       .  A
C620        O622   1.259       .  A
C620        O626   1.264       .  A
C624       C1156   1.481       .  S
In627       O629   2.252       .  S
In627       O630   2.211       .  S
In627       O638   2.274       .  S
In627       O632   2.290       .  S
In627       O634   2.292       .  S
In627       O635   2.202       .  S
In627       O636   2.262       .  S
In627       O639   2.276       .  S
C628        O634   1.264       .  A
C628        O636   1.252       .  A
O629        C637   1.267       .  A
O630        C637   1.261       .  A
C631        O638   1.260       .  A
C631        O632   1.262       .  A
C631        C644   1.487       .  S
C633        O635   1.253       .  A
C633        O639   1.265       .  A
C633        C844   1.466       .  S
C637        C829   1.468       .  S
In640       O642   2.244       .  S
In640       O643   2.227       .  S
In640       O651   2.279       .  S
In640       O645   2.290       .  S
In640       O647   2.294       .  S
In640       O648   2.208       .  S
In640       O649   2.264       .  S
In640       O652   2.257       .  S
C641        O647   1.267       .  A
C641        O649   1.253       .  A
C644        O651   1.259       .  A
C644        O645   1.260       .  A
C646        O948   1.256       .  A
C646        O952   1.263       .  A
C646        C820   1.469       .  S
O648        C946   1.257       .  A
C650        C808   1.486       .  S
O652        C946   1.264       .  A
C653        C781   1.571       .  S
C653        C793   1.567       .  S
C653        C817   1.562       .  S
C653        C841   1.573       .  S
C654        C757   1.580       .  S
C654        C769   1.560       .  S
C654        C865   1.600       .  S
C654        C892   1.592       .  S
C655        C733   1.577       .  S
C655        C745   1.581       .  S
C655        C805   1.581       .  S
C655        C832   1.572       .  S
In656       O658   2.233   1_545  S
In656       O659   2.247       .  S
In656       O667   2.277       .  S
In656       O661   2.281       .  S
In656       O663   2.282   1_556  S
In656       O664   2.221       .  S
In656       O665   2.278       .  S
In656       O668   2.256       .  S
C657        O663   1.265       .  A
C657        O665   1.258   1_554  A
C657        C996   1.485   1_545  S
O658        C966   1.260       .  A
O659        C966   1.259   1_545  A
C660        O667   1.258       .  A
C660        O661   1.259       .  A
C660        C673   1.482       .  S
C662        O664   1.256       .  A
C662        O668   1.266       .  A
C662        C724   1.476       .  S
C666        O958   1.261       .  A
C666        O959   1.257       .  A
C666        C772   1.465       .  S
In669       O671   2.239       .  S
In669       O672   2.238       .  S
In669       O680   2.274       .  S
In669       O674   2.275       .  S
In669       O676   2.285   1_556  S
In669       O677   2.229       .  S
In669       O678   2.267       .  S
In669       O681   2.231       .  S
C670        O676   1.265       .  A
C670        O678   1.254   1_554  A
O671        C679   1.264       .  A
O672        C679   1.257       .  A
C673        O680   1.260       .  A
C673        O674   1.261       .  A
C675        C709   1.474   1_455  S
C679        C760   1.475       .  S
In682       O684   2.250   1_655  S
In682       O685   2.205       .  S
In682       O693   2.271       .  S
In682       O687   2.287       .  S
In682       O689   2.286       .  S
In682       O690   2.228       .  S
In682       O691   2.254       .  S
In682       O694   2.236       .  S
C683        O689   1.265       .  A
C683        O691   1.252       .  A
O684        C692   1.265       .  A
O685        C692   1.257   1_655  A
C686        O693   1.259       .  A
C686        O687   1.261       .  A
C686        C699   1.484       .  S
C688        O690   1.260       .  A
C688        O694   1.262       .  A
C688        C736   1.483       .  S
In695       O697   2.268       .  S
In695       O698   2.206       .  S
In695       O706   2.272       .  S
In695       O700   2.286       .  S
In695       O702   2.300       .  S
In695       O703   2.240       .  S
In695       O704   2.265       .  S
In695       O707   2.231       .  S
C696        O702   1.267       .  A
C696        O704   1.255       .  A
C696        C957   1.486       .  S
O697        C705   1.266       .  A
O698        C705   1.254       .  A
C699        O706   1.259       .  A
C699        O700   1.261       .  A
C701        O703   1.259       .  A
C701        O707   1.263       .  A
C701       C1048   1.468       .  S
C705        C796   1.465       .  S
C708        C712   1.568       .  S
C708        C721   1.577       .  S
C708        C853   1.584       .  S
C708        C880   1.574       .  S
C709        C710   1.402       .  A
C709        C714   1.400       .  A
C710        C711   1.405       .  A
C710        H719   1.083   1_655  S
C711        C712   1.432       .  A
C711        S715   1.808       .  S
C712        C713   1.422       .  A
C713        C714   1.390       .  A
C713        H720   1.076       .  S
C714        S716   1.804       .  S
S715        H718   1.407       .  S
S716        H717   1.408       .  S
C721        C722   1.415       .  A
C721        C726   1.432       .  A
C722        C723   1.393       .  A
C722        H731   1.080       .  S
C723        C724   1.411       .  A
C723        S727   1.803       .  S
C724        C725   1.397       .  A
C725        C726   1.403       .  A
C725        H732   1.083       .  S
C726        S728   1.805       .  S
S727        H730   1.408       .  S
S728        H729   1.406       .  S
C733        C734   1.423       .  A
C733        C738   1.439       .  A
C734        C735   1.391       .  A
C734        H743   1.071       .  S
C735        C736   1.404       .  A
C735        S739   1.804       .  S
C736        C737   1.402       .  A
C737        C738   1.402       .  A
C737        H744   1.084       .  S
C738        S740   1.807       .  S
S739        H742   1.408       .  S
S740        H741   1.395       .  S
C745        C746   1.420       .  A
C745        C750   1.434       .  A
C746        C747   1.399       .  A
C746        H755   1.078       .  S
C747        C748   1.405       .  A
C747        S751   1.802   1_545  S
C748       C1001   1.473   1_545  S
C748        C749   1.396       .  A
C749        C750   1.398       .  A
C749        H756   1.083       .  S
C750        S752   1.809       .  S
S751       H1054   1.407       .  S
S752        H753   1.406       .  S
H754       S1051   1.407       .  S
C757        C758   1.420       .  A
C757        C762   1.434       .  A
C758        C759   1.403       .  A
C758        H767   1.084       .  S
C759        C760   1.412       .  A
C759        S763   1.802       .  S
C760        C761   1.394       .  A
C761        C762   1.392       .  A
C761        H768   1.085       .  S
C762        S764   1.804       .  S
S763        H766   1.407       .  S
S764        H765   1.407       .  S
C769        C770   1.421       .  A
C769        C774   1.432       .  A
C770        C771   1.399       .  A
C770        H779   1.079       .  S
C771        C772   1.405       .  A
C771       S1075   1.804       .  S
C772        C773   1.393       .  A
C773        C774   1.395       .  A
C773        H780   1.083       .  S
C774        S776   1.807       .  S
S775       C1071   1.803   1_545  S
S775        H778   1.407       .  S
S776        H777   1.406       .  S
C781        C782   1.419       .  A
C781        C786   1.435       .  A
C782        C783   1.390       .  A
C782        H791   1.079       .  S
C783        C784   1.403       .  A
C783        S787   1.806       .  S
C784        C785   1.394       .  A
C785        C786   1.405       .  A
C785        H792   1.083       .  S
C786        S788   1.804       .  S
S787        H790   1.407       .  S
S788        H789   1.406       .  S
C793        C794   1.428       .  A
C793        C798   1.439       .  A
C794        C795   1.396       .  A
C794        H803   1.082       .  S
C795        C796   1.397       .  A
C795        S799   1.803       .  S
C796        C797   1.396       .  A
C797        C798   1.399       .  A
C797        H804   1.084       .  S
C798        S800   1.811       .  S
S799        H802   1.406       .  S
S800        H801   1.408       .  S
C805        C806   1.424       .  A
C805        C810   1.432       .  A
C806        C807   1.401       .  A
C806        H815   1.075       .  S
C807        C808   1.406       .  A
C807        S811   1.810       .  S
C808        C809   1.402       .  A
C809        C810   1.401       .  A
C809        H816   1.082       .  S
C810        S812   1.812       .  S
S811        H814   1.407       .  S
S812        H813   1.407       .  S
C817        C818   1.421       .  A
C817        C822   1.436       .  A
C818        C819   1.395       .  A
C818        H827   1.078       .  S
C819        C820   1.401       .  A
C819        S823   1.803       .  S
C820        C821   1.397       .  A
C821        C822   1.400       .  A
C821        H828   1.083       .  S
C822        S824   1.814       .  S
S823       H1126   1.407       .  S
S824        H825   1.407       .  S
H826       S1123   1.407   1_545  S
C829        C830   1.397       .  A
C829        C834   1.398       .  A
C830        C831   1.400       .  A
C830        H839   1.084       .  S
C831        C832   1.438       .  A
C831        S835   1.812       .  S
C832        C833   1.425       .  A
C833        C834   1.397       .  A
C833        H840   1.083       .  S
C834        S836   1.803       .  S
S835        H838   1.407       .  S
S836        H837   1.407       .  S
C841        C842   1.422       .  A
C841        C846   1.435       .  A
C842        C843   1.395       .  A
C842        H851   1.080       .  S
C843        C844   1.399       .  A
C843        S847   1.802       .  S
C844        C845   1.397       .  A
C845        C846   1.400       .  A
C845        H852   1.083       .  S
C846        S848   1.817       .  S
S847        H850   1.406       .  S
S848        H849   1.406       .  S
C853        C854   1.422       .  A
C853        C858   1.435       .  A
C854        C855   1.394       .  A
C854        H863   1.078       .  S
C855        C856   1.405       .  A
C855        S859   1.802       .  S
C856        C924   1.481   1_545  S
C856        C857   1.400       .  A
C857        C858   1.405       .  A
C857        H864   1.082   1_545  S
C858        S860   1.811       .  S
S859       H1162   1.407       .  S
S860        H861   1.406   1_545  S
H862       S1159   1.407       .  S
C865        C866   1.428       .  A
C865        C870   1.443       .  A
C866        C867   1.397       .  A
C866        H875   1.078       .  S
C867        C868   1.401       .  A
C868        C869   1.393       .  A
C869        C870   1.405       .  A
C869        H876   1.084       .  S
C870        S872   1.804       .  S
S871        H874   1.407       .  S
S872        H873   1.408       .  S
C877        C878   1.397       .  A
C877        C882   1.401       .  A
C878        C879   1.410       .  A
C878        H887   1.082       .  S
C879        C880   1.441       .  A
C879        S883   1.813       .  S
C880        C881   1.420       .  A
C881        C882   1.386       .  A
C881        H888   1.081       .  S
C882        S884   1.806       .  S
S883        H886   1.406       .  S
S884        H885   1.408       .  S
C889        C890   1.396       .  A
C889        C894   1.401       .  A
C890        C891   1.399       .  A
C890        H899   1.084       .  S
C891        C892   1.436       .  A
C891        S895   1.815       .  S
C892        C893   1.418       .  A
C893        C894   1.400       .  A
C893        H900   1.078       .  S
C894        S896   1.805       .  S
S895        H898   1.407       .  S
S896        H897   1.405       .  S
In901       O903   2.241       .  S
In901       O904   2.245       .  S
In901       O912   2.290       .  S
In901       O906   2.299       .  S
In901       O908   2.298       .  S
In901       O909   2.208       .  S
In901       O910   2.271       .  S
In901       O913   2.266       .  S
C902        O908   1.265       .  A
C902        O910   1.254       .  A
C902        C928   1.485       .  S
O903        C911   1.261       .  A
O904        C911   1.261       .  A
C905        O912   1.258       .  A
C905        O906   1.259       .  A
C905        C918   1.492       .  S
C907        O909   1.257       .  A
C907        O913   1.266       .  A
C907       C1189   1.466       .  S
C911       C1177   1.470       .  S
In914       O916   2.246       .  S
In914       O917   2.233       .  S
In914       O925   2.290       .  S
In914       O919   2.292       .  S
In914       O921   2.294       .  S
In914       O922   2.231       .  S
In914       O923   2.263       .  S
In914       O926   2.251       .  S
C915        O921   1.267       .  A
C915        O923   1.254       .  A
O916        C924   1.263       .  A
O917        C924   1.260       .  A
C918        O925   1.260       .  A
C918        O919   1.260       .  A
C920        O922   1.260       .  A
C920        O926   1.263       .  A
In927       O929   2.255       .  S
In927       O930   2.209       .  S
In927       O938   2.261       .  S
In927       O932   2.303       .  S
In927       O934   2.290       .  S
In927       O935   2.210       .  S
In927       O936   2.276       .  S
In927       O939   2.263       .  S
C928        O934   1.263       .  A
C928        O936   1.254       .  A
O929        C937   1.267       .  A
O930        C937   1.261       .  A
C931        O938   1.258       .  A
C931        O932   1.264       .  A
C931        C944   1.487       .  S
C933        O935   1.256       .  A
C933        O939   1.263       .  A
C933       C1144   1.470       .  S
C937       C1129   1.471       .  S
In940       O942   2.253       .  S
In940       O943   2.221       .  S
In940       O951   2.271       .  S
In940       O945   2.301       .  S
In940       O947   2.287       .  S
In940       O948   2.215       .  S
In940       O949   2.266       .  S
In940       O952   2.258       .  S
C941        O947   1.266       .  A
C941        O949   1.254       .  A
C944        O951   1.258       .  A
C944        O945   1.260       .  A
C946       C1120   1.468   1_545  S
C950       C1108   1.487       .  S
C953       C1081   1.576       .  S
C953       C1093   1.566       .  S
C953       C1117   1.562       .  S
C953       C1141   1.573       .  S
C954       C1057   1.574       .  S
C954       C1069   1.560       .  S
C954       C1165   1.601       .  S
C954       C1192   1.593       .  S
C955       C1033   1.574       .  S
C955       C1045   1.580       .  S
C955       C1105   1.581       .  S
C955       C1132   1.572       .  S
In956       O958   2.232       .  S
In956       O959   2.236       .  S
In956       O967   2.273       .  S
In956       O961   2.276       .  S
In956       O963   2.287   1_556  S
In956       O964   2.214       .  S
In956       O965   2.276       .  S
In956       O968   2.260       .  S
C957        O963   1.267       .  A
C957        O965   1.257   1_554  A
C960        O967   1.260       .  A
C960        O961   1.260       .  A
C960        C973   1.482       .  S
C962        O964   1.256       .  A
C962        O968   1.267       .  A
C962       C1024   1.473       .  S
C966       C1072   1.471       .  S
In969       O971   2.238       .  S
In969       O972   2.222       .  S
In969       O980   2.275       .  S
In969       O974   2.275       .  S
In969       O976   2.282   1_556  S
In969       O977   2.234       .  S
In969       O978   2.262       .  S
In969       O981   2.231       .  S
C970        O976   1.265       .  A
C970        O978   1.254   1_554  A
O971        C979   1.265       .  A
O972        C979   1.256       .  A
C973        O980   1.260       .  A
C973        O974   1.260       .  A
C975       C1009   1.476   1_455  S
C979       C1060   1.470       .  S
In982       O984   2.252       .  S
In982       O985   2.224       .  S
In982       O993   2.286       .  S
In982       O987   2.290       .  S
In982       O989   2.292       .  S
In982       O990   2.223       .  S
In982       O991   2.258       .  S
In982       O994   2.237       .  S
C983        O989   1.266       .  A
C983        O991   1.253       .  A
O984        C992   1.264   1_655  A
O985        C992   1.259   1_655  A
C986        O993   1.259       .  A
C986        O987   1.259       .  A
C986        C999   1.488       .  S
C988        O990   1.262       .  A
C988        O994   1.263       .  A
C988       C1036   1.484       .  S
In995       O997   2.265       .  S
In995       O998   2.217       .  S
In995      O1006   2.286       .  S
In995      O1000   2.290       .  S
In995      O1002   2.293       .  S
In995      O1003   2.251       .  S
In995      O1004   2.269       .  S
In995      O1007   2.238       .  S
C996       O1002   1.265       .  A
C996       O1004   1.257       .  A
O997       C1005   1.265       .  A
O998       C1005   1.255       .  A
C999       O1006   1.259       .  A
C999       O1000   1.259       .  A
C1001      O1003   1.260       .  A
C1001      O1007   1.260       .  A
C1005      C1096   1.465       .  S
C1008      C1012   1.571       .  S
C1008      C1021   1.578       .  S
C1008      C1153   1.584       .  S
C1008      C1180   1.575       .  S
C1009      C1010   1.402       .  A
C1009      C1014   1.400       .  A
C1010      C1011   1.406       .  A
C1010      H1019   1.083   1_655  S
C1011      C1012   1.432       .  A
C1011      S1015   1.809       .  S
C1012      C1013   1.423       .  A
C1013      C1014   1.389       .  A
C1013      H1020   1.075       .  S
C1014      S1016   1.805       .  S
S1015      H1018   1.407   1_655  S
S1016      H1017   1.408       .  S
C1021      C1022   1.414       .  A
C1021      C1026   1.434       .  A
C1022      C1023   1.394       .  A
C1022      H1031   1.079       .  S
C1023      C1024   1.410       .  A
C1023      S1027   1.805       .  S
C1024      C1025   1.395       .  A
C1025      C1026   1.404       .  A
C1025      H1032   1.083       .  S
C1026      S1028   1.806       .  S
S1027      H1030   1.408       .  S
S1028      H1029   1.406       .  S
C1033      C1034   1.423       .  A
C1033      C1038   1.439       .  A
C1034      C1035   1.393       .  A
C1034      H1043   1.072       .  S
C1035      C1036   1.406       .  A
C1035      S1039   1.803       .  S
C1036      C1037   1.400       .  A
C1037      C1038   1.399       .  A
C1037      H1044   1.084       .  S
C1038      S1040   1.808       .  S
S1039      H1042   1.407       .  S
S1040      H1041   1.393       .  S
C1045      C1046   1.422       .  A
C1045      C1050   1.433       .  A
C1046      C1047   1.400       .  A
C1046      H1055   1.078       .  S
C1047      C1048   1.405       .  A
C1047      S1051   1.803       .  S
C1048      C1049   1.394       .  A
C1049      C1050   1.396       .  A
C1049      H1056   1.083       .  S
C1050      S1052   1.805       .  S
S1052      H1053   1.407       .  S
C1057      C1058   1.417       .  A
C1057      C1062   1.433       .  A
C1058      C1059   1.400       .  A
C1058      H1067   1.084       .  S
C1059      C1060   1.411       .  A
C1059      S1063   1.803       .  S
C1060      C1061   1.394       .  A
C1061      C1062   1.391       .  A
C1061      H1068   1.085       .  S
C1062      S1064   1.804       .  S
S1063      H1066   1.407       .  S
S1064      H1065   1.407       .  S
C1069      C1070   1.419       .  A
C1069      C1074   1.432       .  A
C1070      C1071   1.399       .  A
C1070      H1079   1.079       .  S
C1071      C1072   1.407       .  A
C1072      C1073   1.394       .  A
C1073      C1074   1.395       .  A
C1073      H1080   1.082       .  S
C1074      S1076   1.807       .  S
S1075      H1078   1.407       .  S
S1076      H1077   1.406       .  S
C1081      C1082   1.421       .  A
C1081      C1086   1.435       .  A
C1082      C1083   1.393       .  A
C1082      H1091   1.078       .  S
C1083      C1084   1.404       .  A
C1083      S1087   1.805       .  S
C1084      C1085   1.394       .  A
C1085      C1086   1.405       .  A
C1085      H1092   1.083       .  S
C1086      S1088   1.801       .  S
S1087      H1090   1.407       .  S
S1088      H1089   1.407       .  S
C1093      C1094   1.426       .  A
C1093      C1098   1.440       .  A
C1094      C1095   1.396       .  A
C1094      H1103   1.082       .  S
C1095      C1096   1.397       .  A
C1095      S1099   1.803       .  S
C1096      C1097   1.395       .  A
C1097      C1098   1.400       .  A
C1097      H1104   1.084       .  S
C1098      S1100   1.812       .  S
S1099      H1102   1.407       .  S
S1100      H1101   1.408       .  S
C1105      C1106   1.422       .  A
C1105      C1110   1.433       .  A
C1106      C1107   1.399       .  A
C1106      H1115   1.074       .  S
C1107      C1108   1.407       .  A
C1107      S1111   1.811       .  S
C1108      C1109   1.403       .  A
C1109      C1110   1.403       .  A
C1109      H1116   1.082       .  S
C1110      S1112   1.813       .  S
S1111      H1114   1.407       .  S
S1112      H1113   1.406       .  S
C1117      C1118   1.422       .  A
C1117      C1122   1.434       .  A
C1118      C1119   1.396       .  A
C1118      H1127   1.077       .  S
C1119      C1120   1.401       .  A
C1119      S1123   1.803       .  S
C1120      C1121   1.398       .  A
C1121      C1122   1.399       .  A
C1121      H1128   1.083       .  S
C1122      S1124   1.813       .  S
S1124      H1125   1.407       .  S
C1129      C1130   1.397       .  A
C1129      C1134   1.401       .  A
C1130      C1131   1.399       .  A
C1130      H1139   1.084       .  S
C1131      C1132   1.438       .  A
C1131      S1135   1.814       .  S
C1132      C1133   1.425       .  A
C1133      C1134   1.398       .  A
C1133      H1140   1.084       .  S
C1134      S1136   1.803       .  S
S1135      H1138   1.407       .  S
S1136      H1137   1.407       .  S
C1141      C1142   1.421       .  A
C1141      C1146   1.435       .  A
C1142      C1143   1.396       .  A
C1142      H1151   1.080       .  S
C1143      C1144   1.402       .  A
C1143      S1147   1.802       .  S
C1144      C1145   1.398       .  A
C1145      C1146   1.399       .  A
C1145      H1152   1.083       .  S
C1146      S1148   1.817       .  S
S1147      H1150   1.407       .  S
S1148      H1149   1.406       .  S
C1153      C1154   1.423       .  A
C1153      C1158   1.434       .  A
C1154      C1155   1.392       .  A
C1154      H1163   1.078       .  S
C1155      C1156   1.406       .  A
C1155      S1159   1.803       .  S
C1156      C1157   1.401       .  A
C1157      C1158   1.404       .  A
C1157      H1164   1.082       .  S
C1158      S1160   1.811       .  S
S1160      H1161   1.406       .  S
C1165      C1166   1.429       .  A
C1165      C1170   1.443       .  A
C1166      C1167   1.394       .  A
C1166      H1175   1.077       .  S
C1167      C1168   1.399       .  A
C1168      C1169   1.393       .  A
C1169      C1170   1.406       .  A
C1169      H1176   1.084       .  S
C1170      S1172   1.805       .  S
S1171      H1174   1.407       .  S
S1172      H1173   1.408       .  S
C1177      C1178   1.397       .  A
C1177      C1182   1.403       .  A
C1178      C1179   1.409       .  A
C1178      H1187   1.083       .  S
C1179      C1180   1.440       .  A
C1179      S1183   1.809       .  S
C1180      C1181   1.421       .  A
C1181      C1182   1.389       .  A
C1181      H1188   1.083       .  S
C1182      S1184   1.806       .  S
S1183      H1186   1.408       .  S
S1184      H1185   1.407       .  S
C1189      C1190   1.395       .  A
C1189      C1194   1.399       .  A
C1190      C1191   1.400       .  A
C1190      H1199   1.084       .  S
C1191      C1192   1.439       .  A
C1191      S1195   1.813       .  S
C1192      C1193   1.417       .  A
C1193      C1194   1.398       .  A
C1193      H1200   1.077       .  S
C1194      S1196   1.804       .  S
S1195      H1198   1.408       .  S
S1196      H1197   1.406       .  S
