geometry optimzed in LAMMPS
_audit_creation_date              2020-11-30 
_audit_creation_method            'lammps2cif' 
_symmetry_space_group_name_H-M    'P1' 
_symmetry_Int_Tables_number       1 
_symmetry_cell_setting            triclinic 
loop_ 
_symmetry_equiv_pos_as_xyz 
  x,y,z 
_cell_length_a                    30.1060121 
_cell_length_b                    30.153046560618012 
_cell_length_c                    39.26032495947897 
_cell_angle_alpha                 89.995058661202 
_cell_angle_beta                  90.00236329270199 
_cell_angle_gamma                 89.96866064445932 
loop_ 
_atom_site_label 
_atom_site_type_symbol 
_atom_site_fract_x 
_atom_site_fract_y 
_atom_site_fract_z 
_atom_site_charge 
C1          C  0.86377188  0.36912370  0.03664833     0.33400
C2          C  0.86174396  0.36608185  0.46562471     0.33400
C3          C  0.81959716  0.38252209  0.01949227    -0.02800
C4          C  0.89703639  0.39937554  0.01769546    -0.03500
C5          C  0.87335144  0.32372591  0.02008009    -0.03400
C6          C  0.81847914  0.38107086  0.48365718    -0.02800
C7          C  0.89591741  0.39779551  0.48186759    -0.03500
C8          C  0.87251087  0.32194221  0.48425291    -0.03400
C9          C  0.77828203  0.39939294  0.47382321    -0.28800
N10         N  0.75535526  0.41154633  0.50222222     0.17700
C11         C  0.78024206  0.40168260  0.03009015    -0.28800
H12         H  0.77105376  0.40936175  0.05614544     0.19600
C13         C  0.92569278  0.42903738  0.47013393    -0.27800
N14         N  0.94463164  0.44921083  0.99741993     0.16400
C15         C  0.92754688  0.43158740  0.02646567    -0.27800
C16         C  0.88740566  0.27999392  0.47530737    -0.28100
N17         N  0.89667754  0.25679262  0.50423427     0.16900
H18         H  0.89314801  0.26800413  0.44962288     0.19500
C19         C  0.88847744  0.28315825  0.03153493    -0.28100
H20         H  0.89518372  0.27422749  0.05779608     0.19500
H21         H  0.93593875  0.44217093  0.05201082     0.19500
H22         H  0.76723002  0.40491264  0.44793840     0.19600
H23         H  0.93233461  0.43721692  0.44377501     0.19500
C24         C  0.86189917  0.36668237  0.21545412     0.33400
C25         C  0.86053011  0.36741851  0.28653304     0.33400
C26         C  0.87114879  0.32197386  0.23342509    -0.02800
C27         C  0.89574050  0.39722923  0.23324546    -0.03500
C28         C  0.81797542  0.38134258  0.23243482    -0.03400
C29         C  0.87043025  0.32237558  0.26928795    -0.02800
C30         C  0.89515848  0.39765433  0.26908489    -0.03500
C31         C  0.81718678  0.38182239  0.26829915    -0.03400
C32         C  0.88392294  0.28080801  0.27998373    -0.28800
N33         N  0.89239342  0.25544236  0.25209170     0.17700
C34         C  0.88507197  0.28016155  0.22366415    -0.28800
H35         H  0.89122258  0.26911532  0.19783104     0.19600
C36         C  0.92869537  0.42587047  0.27938250    -0.27800
N37         N  0.94918526  0.44215377  0.25118436     0.16400
C38         C  0.92949323  0.42506829  0.22300345    -0.27800
C39         C  0.77629207  0.39888551  0.27774763    -0.28100
N40         N  0.75263613  0.40838373  0.24911599     0.16900
H41         H  0.76502777  0.40502875  0.30354752     0.19500
C42         C  0.77763688  0.39790699  0.22142327    -0.28100
H43         H  0.76768723  0.40308544  0.19526084     0.19500
H44         H  0.93919980  0.43221620  0.19700139     0.19500
H45         H  0.88900623  0.27038638  0.30608555     0.19600
H46         H  0.93768302  0.43380409  0.30537105     0.19500
C47         C  0.69413474  0.85414831  0.03330218     0.33400
C48         C  0.69536331  0.85548405  0.46231490     0.33400
C49         C  0.68769974  0.80897114  0.01527857    -0.02800
C50         C  0.65840723  0.88280053  0.01567525    -0.03500
C51         C  0.73700835  0.87164221  0.01641024    -0.03400
C52         C  0.68833188  0.80967906  0.47927404    -0.02800
C53         C  0.65890343  0.88341300  0.47987718    -0.03500
C54         C  0.73779386  0.87248084  0.48059817    -0.03400
C55         C  0.66797661  0.77099120  0.46852015    -0.28800
N56         N  0.65601907  0.74681510  0.99619745     0.17700
C57         C  0.66692058  0.76990428  0.02468787    -0.28800
H58         H  0.65708087  0.76076644  0.05029066     0.19600
C59         C  0.62511697  0.91147105  0.46964554    -0.27800
N60         N  0.60461495  0.92774853  0.99785459     0.16400
C61         C  0.62452912  0.91060090  0.02598682    -0.27800
C62         C  0.77742761  0.89261553  0.47135042    -0.28100
N63         N  0.80026655  0.90363569  0.00009140     0.16900
H64         H  0.78820007  0.89994012  0.44561930     0.19500
C65         C  0.77594769  0.89107568  0.02760395    -0.28100
H66         H  0.78525968  0.89695382  0.05390030     0.19500
H67         H  0.61550785  0.91837164  0.05199139     0.19500
H68         H  0.65911205  0.76284126  0.44253092     0.19600
H69         H  0.61662751  0.92004502  0.44369078     0.19500
C70         C  0.69409707  0.85545330  0.28313485     0.33400
C71         C  0.69279665  0.85518690  0.21207898     0.33400
C72         C  0.68003165  0.81158073  0.26570607    -0.02800
C73         C  0.66251444  0.88891216  0.26578099    -0.03500
C74         C  0.73863631  0.86602929  0.26499385    -0.03400
C75         C  0.67947466  0.81145081  0.22987688    -0.02800
C76         C  0.66185759  0.88891178  0.22994268    -0.03500
C77         C  0.73781917  0.86566715  0.22909814    -0.03400
C78         C  0.66214620  0.77102858  0.21982305    -0.28800
N79         N  0.65231480  0.74690637  0.24809610     0.17700
C80         C  0.66283597  0.77124158  0.27614054    -0.28800
H81         H  0.65675262  0.76110291  0.30210433     0.19600
C82         C  0.63102036  0.92040990  0.22006737    -0.27800
N83         N  0.61318824  0.93903693  0.24851500     0.16400
C84         C  0.63206575  0.92021368  0.27642163    -0.27800
C85         C  0.77707562  0.88453774  0.21807601    -0.28100
N86         N  0.80170891  0.89605235  0.24565550     0.16900
H87         H  0.78573263  0.89208463  0.19197977     0.19500
C88         C  0.77854514  0.88551754  0.27433354    -0.28100
H89         H  0.78864340  0.89400796  0.29998952     0.19500
H90         H  0.62375455  0.92825741  0.30253346     0.19500
H91         H  0.65543952  0.76070122  0.19390667     0.19600
H92         H  0.62174237  0.92864827  0.19420672     0.19500
Zn93       Zn  0.00789835  0.98764404  0.46964920     1.49700
Zn94       Zn  0.97743233  0.04284611  0.03036299     1.49400
Zn95       Zn  0.08460702  0.01230002  0.01391877     1.49100
Zn96       Zn  0.04644659  0.09118872  0.49242112     1.49500
O97         O  0.02598307  0.03084715  0.50119574    -1.80700
O98         O  0.94241761  0.97021662  0.47598098    -0.71300
O99         O  0.01312871  0.05145992  0.07162887    -0.71100
O100        O  0.09558811  0.94703478  0.01099161    -0.70700
O101        O  0.92989543  0.99353655  0.02892379    -0.71300
O102        O  0.04519870  0.92965699  0.47203632    -0.70900
O103        O  0.08437534  0.03263058  0.05972938    -0.71500
O104        O  0.10863226  0.10917435  0.50839258    -0.70900
O105        O  0.94563083  0.10231352  0.02055932    -0.71700
O106        O  0.13752813  0.04507444  0.99349784    -0.71100
O107        O  0.00242999  0.14052368  0.50035977    -0.71500
O108        O  0.05108551  0.08825996  0.44458366    -0.71400
O109        O  0.02081222  0.02251848  0.42885999    -0.71200
C110        C  0.91811097  0.97137379  0.50264460     0.80600
C111        C  0.05451941  0.04898809  0.07863311     0.81100
C112        C  0.07782664  0.91893410  0.49118359     0.80000
C113        C  0.14242398  0.08587109  0.50078651     0.80400
C114        C  0.96220831  0.13864687  0.50986801     0.81500
C115        C  0.03866979  0.06013761  0.42276303     0.80600
Zn116      Zn  0.04221622  0.09040770  0.24100223     1.49700
Zn117      Zn  0.96990814  0.04036911  0.27297043     1.49400
Zn118      Zn  0.01078565  0.98516426  0.21597599     1.51500
Zn119      Zn  0.07875153  0.01064629  0.26856074     1.49500
O120        O  0.02333121  0.02920028  0.24878992    -1.80700
O121        O  0.99567013  0.13827252  0.24678210    -0.71300
O122        O  0.92603312  0.98976281  0.26969833    -0.71100
O123        O  0.03256492  0.01908061  0.17610157    -0.70700
O124        O  0.93714881  0.09849222  0.26154538    -0.71300
O125        O  0.05501066  0.08696836  0.19395495    -0.70900
O126        O  0.94429879  0.96570857  0.21789934    -0.71500
O127        O  0.09258223  0.94541775  0.26542217    -0.70900
O128        O  0.99630168  0.05064637  0.31698607    -0.71700
O129        O  0.04847171  0.92798441  0.22224950    -0.71100
O130        O  0.06840803  0.02956228  0.31400953    -0.71500
O131        O  0.13395696  0.04589596  0.25508684    -0.71400
O132        O  0.10153648  0.11101010  0.26087178    -0.71200
C133        C  0.95456304  0.13559064  0.25364719     0.80600
C134        C  0.91769242  0.96639452  0.24341519     0.81100
C135        C  0.05051209  0.05715793  0.17164622     0.80000
C136        C  0.07848370  0.91744822  0.24379335     0.80400
C137        C  0.03556563  0.04758379  0.32868028     0.81500
C138        C  0.13668595  0.08774440  0.25869318     0.80600
C139        C  0.18090992  0.68954906  0.46187600     0.33400
C140        C  0.17824075  0.69062922  0.03292506     0.33400
C141        C  0.16833450  0.73401720  0.47868621    -0.02800
C142        C  0.14770976  0.65775589  0.47902869    -0.03500
C143        C  0.22451433  0.67745575  0.48050414    -0.03400
C144        C  0.16675096  0.73482321  0.01456742    -0.02800
C145        C  0.14631400  0.65819484  0.01483518    -0.03500
C146        C  0.22317642  0.67788646  0.01636886    -0.03400
C147        C  0.14672107  0.77463386  0.02342124    -0.28800
N148        N  0.13693325  0.79750928  0.99444487     0.17700
C149        C  0.14971673  0.77305537  0.46716245    -0.28800
H150        H  0.14359992  0.78189174  0.44084731     0.19600
C151        C  0.11448252  0.62774992  0.02450035    -0.27800
N152        N  0.09695361  0.60922715  0.99595029     0.16400
C153        C  0.11682730  0.62714639  0.46814773    -0.27800
C154        C  0.26216574  0.65824950  0.02755568    -0.28100
N155        N  0.28691365  0.64655332  0.99997485     0.16900
H156        H  0.27071487  0.65080143  0.05368570     0.19500
C157        C  0.26424226  0.65778379  0.47128020    -0.28100
H158        H  0.27471706  0.64989983  0.44562154     0.19500
H159        H  0.10937507  0.61850881  0.44201436     0.19500
H160        H  0.13776230  0.78506676  0.04889315     0.19600
H161        H  0.10477817  0.61965885  0.05030071     0.19500
C162        C  0.17874817  0.68673695  0.21197852     0.33400
C163        C  0.17875115  0.68799455  0.28307101     0.33400
C164        C  0.16546932  0.73085165  0.22912551    -0.02800
C165        C  0.14729819  0.65375567  0.22995461    -0.03500
C166        C  0.22336959  0.67602344  0.22968884    -0.03400
C167        C  0.16533673  0.73162475  0.26497275    -0.02800
C168        C  0.14733867  0.65438504  0.26581913    -0.03500
C169        C  0.22331135  0.67660894  0.26558543    -0.03400
C170        C  0.14723521  0.77198784  0.27451152    -0.28800
N171        N  0.13683282  0.79529514  0.24590679     0.17700
C172        C  0.14769543  0.77060440  0.21820084    -0.28800
H173        H  0.14133516  0.78008152  0.19205289     0.19600
C174        C  0.11923243  0.62104937  0.27647851    -0.27800
N175        N  0.10243975  0.60054156  0.24850503     0.16400
C176        C  0.11915410  0.62003259  0.22007523    -0.27800
C177        C  0.26295468  0.65789446  0.27605030    -0.28100
N178        N  0.28696232  0.64664237  0.24804834     0.16900
H179        H  0.27252539  0.65070689  0.30204134     0.19500
C180        C  0.26313205  0.65704382  0.21973640    -0.28100
H181        H  0.27288256  0.64907590  0.19392838     0.19500
H182        H  0.11200280  0.60986935  0.19420835     0.19500
H183        H  0.14040091  0.78281183  0.30031488     0.19600
H184        H  0.11214828  0.61185226  0.30253115     0.19500
C185        C  0.37559451  0.17412094  0.03946752     0.33400
C186        C  0.37669161  0.17696055  0.46841667     0.33400
C187        C  0.39269008  0.21750512  0.02304285    -0.02800
C188        C  0.40463153  0.13899343  0.02126556    -0.03500
C189        C  0.33051714  0.16762608  0.02130200    -0.03400
C190        C  0.39331139  0.21897620  0.48721076    -0.02800
C191        C  0.40506720  0.14049344  0.48542590    -0.03500
C192        C  0.33106688  0.16899776  0.48542530    -0.03400
C193        C  0.41109811  0.25964371  0.47820350    -0.28800
N194        N  0.42103008  0.28255924  0.00707146     0.17700
C195        C  0.41003605  0.25729367  0.03449334    -0.28800
H196        H  0.41465687  0.26699667  0.06081472     0.19600
C197        C  0.43264419  0.10683062  0.47445073    -0.27800
N198        N  0.44891473  0.08526041  0.00214091     0.16400
C199        C  0.43216507  0.10441234  0.03077372    -0.27800
C200        C  0.29045720  0.15294020  0.47451801    -0.28100
N201        N  0.26547293  0.14256328  0.00222602     0.16900
H202        H  0.28086839  0.14663323  0.44837646     0.19500
C203        C  0.28958771  0.15087359  0.03078355    -0.28100
H204        H  0.27922331  0.14269204  0.05640092     0.19500
H205        H  0.43983198  0.09424675  0.05656029     0.19500
H206        H  0.41671963  0.27155495  0.45252247     0.19600
H207        H  0.44072263  0.09891903  0.44825304     0.19500
C208        C  0.37360861  0.17689052  0.28933589     0.33400
C209        C  0.37043189  0.17354207  0.21833688     0.33400
C210        C  0.38588859  0.22008756  0.27009667    -0.02800
C211        C  0.40447338  0.14279581  0.27180266    -0.03500
C212        C  0.32813710  0.16526089  0.27322258    -0.03400
C213        C  0.38417692  0.21823329  0.23430086    -0.02800
C214        C  0.40280199  0.14118110  0.23601943    -0.03500
C215        C  0.32651243  0.16353555  0.23738250    -0.03400
C216        C  0.39915918  0.25855570  0.22220028    -0.28800
N217        N  0.40993482  0.28462298  0.24915544     0.17700
C218        C  0.40205939  0.26168600  0.27843401    -0.28800
H219        H  0.40896769  0.27379622  0.30378085     0.19600
C220        C  0.43293512  0.10938645  0.22569828    -0.27800
N221        N  0.45268785  0.09187992  0.25375191     0.16400
C222        C  0.43575248  0.11187462  0.28197209    -0.27800
C223        C  0.28423628  0.14957353  0.22871036    -0.28100
N224        N  0.26045829  0.14300292  0.25775475     0.16900
H225        H  0.27215981  0.14318865  0.20324807     0.19500
C226        C  0.28676759  0.15237508  0.28497839    -0.28100
H227        H  0.27703428  0.14859834  0.31138267     0.19500
H228        H  0.44571131  0.10472921  0.30788191     0.19500
H229        H  0.40335933  0.26772040  0.19567148     0.19600
H230        H  0.44024852  0.09992867  0.19968410     0.19500
Zn231      Zn  0.50083920  0.57970569  0.48301465     1.49700
Zn232      Zn  0.57065992  0.54128061  0.02824662     1.49400
Zn233      Zn  0.46287927  0.50627341  0.01809058     1.49100
Zn234      Zn  0.53923344  0.47305225  0.47659047     1.49500
O235        O  0.52119268  0.52366333  0.00153811    -1.80700
O236        O  0.54612669  0.63012166  0.48246772    -0.71300
O237        O  0.53876423  0.55352606  0.07025549    -0.71100
O238        O  0.40809620  0.53896409  0.99968473    -0.70700
O239        O  0.59817939  0.60053988  0.01515488    -0.71300
O240        O  0.44150954  0.60391704  0.50055268    -0.70900
O241        O  0.46757204  0.53167534  0.06222503    -0.71500
O242        O  0.50797847  0.41523165  0.48992376    -0.70900
O243        O  0.62162855  0.49577677  0.02802081    -0.71700
O244        O  0.45054218  0.43969325  0.01973560    -0.71100
O245        O  0.60647622  0.46246269  0.47874782    -0.71500
O246        O  0.51449390  0.48967840  0.43271003    -0.71400
O247        O  0.48717687  0.55934359  0.43807729    -0.71200
C248        C  0.58352287  0.63267404  0.99745821     0.80600
C249        C  0.49797677  0.55106410  0.07877930     0.81100
C250        C  0.40595587  0.58113213  0.00034443     0.80000
C251        C  0.47225821  0.40791643  0.00635641     0.80400
C252        C  0.63300018  0.47039514  0.00341252     0.81500
C253        C  0.49288799  0.52327487  0.42206040     0.80600
Zn254      Zn  0.50109330  0.57916288  0.26545670     1.49700
Zn255      Zn  0.56901074  0.53682600  0.22020615     1.49400
Zn256      Zn  0.53623266  0.47149422  0.27308475     1.49100
Zn257      Zn  0.46038646  0.50572333  0.23185066     1.49500
O258        O  0.51936227  0.52198713  0.24762992    -1.80700
O259        O  0.54746697  0.62840670  0.26360614    -0.71300
O260        O  0.61865246  0.49010693  0.22119877    -0.71100
O261        O  0.51293543  0.49016298  0.31658334    -0.70700
O262        O  0.59821616  0.59648503  0.23102867    -0.71300
O263        O  0.48796095  0.56071087  0.31123321    -0.70900
O264        O  0.60308908  0.45924600  0.27129343    -0.71500
O265        O  0.44508886  0.43997079  0.23239554    -0.70900
O266        O  0.53695088  0.54739542  0.17823140    -0.71700
O267        O  0.50255549  0.41424069  0.26153090    -0.71100
O268        O  0.46477647  0.52935483  0.18696376    -0.71500
O269        O  0.40745643  0.54022119  0.25065371    -0.71400
O270        O  0.44216640  0.60437902  0.24812845    -0.71200
C271        C  0.58446350  0.62973947  0.24798059     0.80600
C272        C  0.62966463  0.46566324  0.24643043     0.81100
C273        C  0.49275305  0.52450440  0.32732891     0.80000
C274        C  0.46583252  0.40788083  0.24616541     0.80400
C275        C  0.49600902  0.54677689  0.16999077     0.81500
C276        C  0.40621290  0.58232713  0.24925586     0.80600
C277        C  0.47624457  0.52148325  0.38955933    -0.09800
C278        C  0.47622866  0.52264088  0.35986313    -0.11400
C279        C  0.48609861  0.56812900  0.10981955    -0.09800
C280        C  0.48492622  0.56569306  0.13938728    -0.11400
C281        C  0.42938464  0.32721760  0.24700621    -0.09800
C282        C  0.44642093  0.36375879  0.24562379    -0.11400
C283        C  0.37533008  0.17819300  0.32841444    -0.15100
C284        C  0.37625975  0.17852293  0.36009186     0.09000
C285        C  0.37693044  0.17845582  0.39763070     0.10800
C286        C  0.37711976  0.17806921  0.42931314    -0.15900
C287        C  0.36984717  0.17214940  0.17928427    -0.15100
C288        C  0.37089694  0.17198535  0.14763440     0.09000
C289        C  0.37285324  0.17229917  0.11016060     0.10800
C290        C  0.37448442  0.17282306  0.07852434    -0.15900
C291        C  0.43961903  0.32563278  0.00830525    -0.09800
C292        C  0.45511411  0.36291869  0.00854929    -0.11400
C293        C  0.36377781  0.60520190  0.24882893    -0.09800
C294        C  0.32825300  0.62436558  0.24840093    -0.11400
C295        C  0.18146907  0.68896125  0.42285357    -0.15100
C296        C  0.18093551  0.68877091  0.39122139     0.09000
C297        C  0.17986675  0.68856297  0.35376189     0.10800
C298        C  0.17904022  0.68835469  0.32212360    -0.15900
C299        C  0.17841165  0.68659496  0.17288503    -0.15100
C300        C  0.17790867  0.68758451  0.14121996     0.09000
C301        C  0.17731712  0.68916791  0.10370700     0.10800
C302        C  0.17717240  0.69031453  0.07203376    -0.15900
C303        C  0.32774205  0.62323375  0.00074880    -0.09800
C304        C  0.36306438  0.60349414  0.00077471    -0.11400
C305        C  0.18003886  0.10894351  0.25970158    -0.09800
C306        C  0.21697276  0.12533273  0.25925960    -0.11400
C307        C  0.09755429  0.87317757  0.24380205    -0.09800
C308        C  0.11547897  0.83704201  0.24486075    -0.11400
C309        C  0.22301162  0.12262113  0.00142782    -0.09800
C310        C  0.18638425  0.10566231  0.00086947    -0.11400
C311        C  0.09584356  0.87430210  0.99081521    -0.09800
C312        C  0.11426357  0.83848763  0.99252369    -0.11400
C313        C  0.04496329  0.07090746  0.38934416    -0.09800
C314        C  0.04335568  0.06563946  0.36003490    -0.11400
C315        C  0.06604267  0.06693966  0.13961281    -0.09800
C316        C  0.06771655  0.06413983  0.11001936    -0.11400
C317        C  0.48621378  0.05911387  0.25333306    -0.15100
C318        C  0.51530622  0.03122308  0.25225441     0.09000
C319        C  0.54978925  0.99884862  0.25048678     0.10800
C320        C  0.57920576  0.97131435  0.24923323    -0.15900
C321        C  0.63054105  0.70534643  0.24840023    -0.09800
C322        C  0.61058752  0.67026067  0.24863152    -0.11400
C323        C  0.84232354  0.91963086  0.24432030    -0.09800
C324        C  0.87698672  0.94037072  0.24297009    -0.11400
C325        C  0.47999067  0.05019400  0.00118396    -0.15100
C326        C  0.50745909  0.02072611  0.50005062     0.09000
C327        C  0.54077144  0.98712311  0.49875979     0.10800
C328        C  0.56996805  0.95931685  0.99808004    -0.15900
C329        C  0.69542736  0.85596538  0.42319039    -0.15100
C330        C  0.69494278  0.85583199  0.39150151     0.09000
C331        C  0.69446527  0.85565177  0.35395113     0.10800
C332        C  0.69431354  0.85559300  0.32225948    -0.15900
C333        C  0.69356925  0.85385476  0.07233311    -0.15100
C334        C  0.69322404  0.85399837  0.10396576     0.09000
C335        C  0.69275452  0.85446669  0.14142138     0.10800
C336        C  0.69242994  0.85493171  0.17305259    -0.15900
C337        C  0.60935930  0.67318931  0.99536675    -0.09800
C338        C  0.63096997  0.70722057  0.99545278    -0.11400
C339        C  0.87620320  0.94711247  0.50266508    -0.09800
C340        C  0.84116920  0.92685397  0.00143165    -0.11400
C341        C  0.98450366  0.47273506  0.25100892    -0.15100
C342        C  0.01394302  0.50006948  0.25045116     0.09000
C343        C  0.04655136  0.53406155  0.24959451     0.10800
C344        C  0.07280734  0.56445237  0.24898679    -0.15900
C345        C  0.92816173  0.17590423  0.25299641    -0.09800
C346        C  0.91046244  0.21216517  0.25259865    -0.11400
C347        C  0.70994879  0.42798094  0.24810045    -0.09800
C348        C  0.67331541  0.44501963  0.24708416    -0.11400
C349        C  0.97595776  0.48385011  0.99586871    -0.15100
C350        C  0.00312369  0.51346806  0.49496019     0.09000
C351        C  0.03558878  0.54767900  0.49478006     0.10800
C352        C  0.06380170  0.57630767  0.99523447    -0.15900
C353        C  0.86026392  0.36746257  0.32563932    -0.15100
C354        C  0.86038332  0.36679440  0.35731686     0.09000
C355        C  0.86066185  0.36582750  0.39484594     0.10800
C356        C  0.86099474  0.36536795  0.42652498    -0.15900
C357        C  0.86457127  0.37001120  0.07568427    -0.15100
C358        C  0.86440605  0.36929069  0.10732387     0.09000
C359        C  0.86371300  0.36793385  0.14478332     0.10800
C360        C  0.86293240  0.36695338  0.17641431    -0.15900
C361        C  0.91661599  0.21435112  0.50597402    -0.09800
C362        C  0.93552245  0.17877093  0.50810908    -0.11400
C363        C  0.71327613  0.43247740  0.00275529    -0.09800
C364        C  0.67686724  0.45007690  0.00333295    -0.11400
C365        C  0.86377097  0.36913268  0.53665033     0.33400
C366        C  0.86174390  0.36607845  0.96562276     0.33400
C367        C  0.81959980  0.38254046  0.51949310    -0.02800
C368        C  0.89704272  0.39937463  0.51769667    -0.03500
C369        C  0.87334020  0.32373127  0.52008479    -0.03400
C370        C  0.81847592  0.38105559  0.98365630    -0.02800
C371        C  0.89591039  0.39779847  0.98186640    -0.03500
C372        C  0.87252147  0.32194004  0.98424821    -0.03400
C373        C  0.77827737  0.39937587  0.97382373    -0.28800
N374        N  0.75535046  0.41152487  0.00222376     0.17700
C375        C  0.78024569  0.40170474  0.53008947    -0.28800
H376        H  0.77105613  0.40938451  0.55614471     0.19600
C377        C  0.92568566  0.42904044  0.97013285    -0.27800
N378        N  0.94463771  0.44920864  0.49742116     0.16400
C379        C  0.92755249  0.43158650  0.52646683    -0.27800
C380        C  0.88741736  0.27999352  0.97529965    -0.28100
N381        N  0.89669092  0.25679003  0.00422501     0.16900
H382        H  0.89315656  0.26800543  0.94961431     0.19500
C383        C  0.88846442  0.28316418  0.53154231    -0.28100
H384        H  0.89517261  0.27423713  0.55780393     0.19500
H385        H  0.93594039  0.44217412  0.55201197     0.19500
H386        H  0.76722566  0.40489971  0.94793950     0.19600
H387        H  0.93232992  0.43721775  0.94377364     0.19500
C388        C  0.86190400  0.36669434  0.71545495     0.33400
C389        C  0.86053663  0.36742872  0.78653338     0.33400
C390        C  0.87115409  0.32198525  0.73342500    -0.02800
C391        C  0.89574633  0.39723992  0.73324605    -0.03500
C392        C  0.81798072  0.38135520  0.73243644    -0.03400
C393        C  0.87043632  0.32238622  0.76928776    -0.02800
C394        C  0.89516515  0.39766446  0.76908540    -0.03500
C395        C  0.81719304  0.38183386  0.76830064    -0.03400
C396        C  0.88393246  0.28081954  0.77998311    -0.28800
N397        N  0.89240370  0.25545479  0.75209069     0.17700
C398        C  0.88508038  0.28017411  0.72366354    -0.28800
H399        H  0.89123126  0.26912861  0.69783005     0.19600
C400        C  0.92870554  0.42587666  0.77938277    -0.27800
N401        N  0.94919668  0.44215775  0.75118437     0.16400
C402        C  0.92950224  0.42507470  0.72300365    -0.27800
C403        C  0.77629962  0.39889919  0.77775035    -0.28100
N404        N  0.75264320  0.40839991  0.74911947     0.16900
H405        H  0.76503655  0.40504206  0.80355068     0.19500
C406        C  0.77764272  0.39792281  0.72142602    -0.28100
H407        H  0.76769269  0.40310284  0.69526414     0.19500
H408        H  0.93920996  0.43222045  0.69700166     0.19500
H409        H  0.88901694  0.27039792  0.80608453     0.19600
H410        H  0.93769547  0.43380799  0.80537107     0.19500
C411        C  0.69413423  0.85416511  0.53330604     0.33400
C412        C  0.69536018  0.85546777  0.96231010     0.33400
C413        C  0.68770487  0.80898705  0.51528371    -0.02800
C414        C  0.65840532  0.88281328  0.51567875    -0.03500
C415        C  0.73700635  0.87166289  0.51641640    -0.03400
C416        C  0.68832534  0.80966370  0.97926915    -0.02800
C417        C  0.65890413  0.88339994  0.97987350    -0.03500
C418        C  0.73779293  0.87246016  0.98059174    -0.03400
C419        C  0.66797980  0.77097126  0.96851444    -0.28800
N420        N  0.65601033  0.74683801  0.49620314     0.17700
C421        C  0.66691574  0.76992556  0.52469318    -0.28800
H422        H  0.65707133  0.76079169  0.55029565     0.19600
C423        C  0.62511892  0.91145922  0.96964164    -0.27800
N424        N  0.60461198  0.92775838  0.49785885     0.16400
C425        C  0.62452628  0.91061123  0.52599081    -0.27800
C426        C  0.77742499  0.89259522  0.97134102    -0.28100
N427        N  0.80026590  0.90365538  0.50010275     0.16900
H428        H  0.78819340  0.89992132  0.94560878     0.19500
C429        C  0.77594393  0.89109564  0.52761332    -0.28100
H430        H  0.78525354  0.89697178  0.55391046     0.19500
H431        H  0.61550505  0.91838152  0.55199541     0.19500
H432        H  0.65911854  0.76281905  0.94252497     0.19600
H433        H  0.61662899  0.92003196  0.94368664     0.19500
C434        C  0.69410025  0.85546225  0.78313138     0.33400
C435        C  0.69279981  0.85520521  0.71207670     0.33400
C436        C  0.68003070  0.81159323  0.76569911    -0.02800
C437        C  0.66252050  0.88892684  0.76578031    -0.03500
C438        C  0.73864122  0.86603598  0.76499124    -0.03400
C439        C  0.67947386  0.81146859  0.72987025    -0.02800
C440        C  0.66186431  0.88893111  0.72994225    -0.03500
C441        C  0.73782355  0.86567773  0.72909568    -0.03400
C442        C  0.66214724  0.77104791  0.71981189    -0.28800
N443        N  0.65231631  0.74692105  0.74808236     0.17700
C444        C  0.66283631  0.77125178  0.77612946    -0.28800
H445        H  0.65675448  0.76110788  0.80209198     0.19600
C446        C  0.63102843  0.92043132  0.72006844    -0.27800
N447        N  0.61319549  0.93905528  0.74851695     0.16400
C448        C  0.63207169  0.92022782  0.77642260    -0.27800
C449        C  0.77708237  0.88454263  0.71807361    -0.28100
N450        N  0.80171786  0.89605195  0.74565299     0.16900
H451        H  0.78573924  0.89209114  0.69197728     0.19500
C452        C  0.77855337  0.88551788  0.77433113    -0.28100
H453        H  0.78865314  0.89400571  0.79998725     0.19500
H454        H  0.62375869  0.92826744  0.80253495     0.19500
H455        H  0.65544283  0.76072403  0.69389417     0.19600
H456        H  0.62175092  0.92867205  0.69420840     0.19500
Zn457      Zn  0.00790309  0.98763307  0.96964280     1.49700
Zn458      Zn  0.97744180  0.04285260  0.53037956     1.49400
Zn459      Zn  0.08461244  0.01230979  0.51391272     1.49100
Zn460      Zn  0.04644881  0.09117941  0.99242195     1.49500
O461        O  0.02598259  0.03083606  0.00119055    -1.80700
O462        O  0.94242003  0.97020323  0.97596672    -0.71300
O463        O  0.01315038  0.05145220  0.57164102    -0.71100
O464        O  0.09559507  0.94704533  0.51098166    -0.70700
O465        O  0.92990319  0.99354425  0.52894118    -0.71300
O466        O  0.04520791  0.92964870  0.97203291    -0.70900
O467        O  0.08439370  0.03262849  0.55972505    -0.71500
O468        O  0.10863450  0.10916119  0.00839316    -0.70900
O469        O  0.94563887  0.10232449  0.52058841    -0.71700
O470        O  0.13752759  0.04509126  0.49348923    -0.71100
O471        O  0.00243942  0.14051794  0.00036606    -0.71500
O472        O  0.05108321  0.08825838  0.94458428    -0.71400
O473        O  0.02082094  0.02251259  0.92885782    -0.71200
C474        C  0.91810828  0.97136261  0.00262766     0.80600
C475        C  0.05454340  0.04897886  0.57863714     0.81100
C476        C  0.07782894  0.91892515  0.99118710     0.80000
C477        C  0.14242574  0.08585490  0.00079218     0.80400
C478        C  0.96221054  0.13863932  0.00985565     0.81500
C479        C  0.03867227  0.06013514  0.92276272     0.80600
Zn480      Zn  0.04221829  0.09041661  0.74099643     1.49700
Zn481      Zn  0.96991080  0.04037491  0.77296939     1.49400
Zn482      Zn  0.01079068  0.98516956  0.71597680     1.51500
Zn483      Zn  0.07875538  0.01065255  0.76856243     1.49500
O484        O  0.02333558  0.02920928  0.74878945    -1.80700
O485        O  0.99567069  0.13827931  0.74677018    -0.71300
O486        O  0.92603682  0.98976817  0.76969350    -0.71100
O487        O  0.03258219  0.01907832  0.67610326    -0.70700
O488        O  0.93715381  0.09850277  0.76155041    -0.71300
O489        O  0.05502139  0.08697040  0.69395154    -0.70900
O490        O  0.94430243  0.96571839  0.71789342    -0.71500
O491        O  0.09259457  0.94542646  0.76541667    -0.70900
O492        O  0.99630092  0.05064232  0.81698637    -0.71700
O493        O  0.04847144  0.92798592  0.72225377    -0.71100
O494        O  0.06840556  0.02955164  0.81401326    -0.71500
O495        O  0.13396003  0.04591157  0.75510110    -0.71400
O496        O  0.10153456  0.11102654  0.76086714    -0.71200
C497        C  0.95456612  0.13559937  0.75364403     0.80600
C498        C  0.91769666  0.96640123  0.74340964     0.81100
C499        C  0.05053135  0.05715426  0.67164644     0.80000
C500        C  0.07849073  0.91745349  0.74379273     0.80400
C501        C  0.03556307  0.04757422  0.82868279     0.81500
C502        C  0.13668551  0.08776149  0.75869900     0.80600
C503        C  0.18092267  0.68954266  0.96187752     0.33400
C504        C  0.17823346  0.69063690  0.53292328     0.33400
C505        C  0.16834070  0.73400919  0.97868799    -0.02800
C506        C  0.14772503  0.65774482  0.97902870    -0.03500
C507        C  0.22452722  0.67745416  0.98050782    -0.03400
C508        C  0.16674703  0.73483206  0.51456578    -0.02800
C509        C  0.14630162  0.65820638  0.51483513    -0.03500
C510        C  0.22316652  0.67788863  0.51636504    -0.03400
C511        C  0.14671458  0.77464162  0.52341928    -0.28800
N512        N  0.13692466  0.79751585  0.49444276     0.17700
C513        C  0.14972582  0.77304901  0.96716446    -0.28800
H514        H  0.14361198  0.78188715  0.94084909     0.19600
C515        C  0.11446783  0.62776519  0.52450198    -0.27800
N516        N  0.09693480  0.60924450  0.49595284     0.16400
C517        C  0.11684678  0.62713158  0.96814635    -0.27800
C518        C  0.26215942  0.65825692  0.52754995    -0.28100
N519        N  0.28690606  0.64656264  0.49996793     0.16900
H520        H  0.27071303  0.65081242  0.55368012     0.19500
C521        C  0.26425357  0.65777713  0.97128608    -0.28100
H522        H  0.27472879  0.64989010  0.94562797     0.19500
H523        H  0.10939674  0.61849417  0.94201219     0.19500
H524        H  0.13775519  0.78507424  0.54889110     0.19600
H525        H  0.10476556  0.61967419  0.55030300     0.19500
C526        C  0.17875409  0.68674158  0.71197671     0.33400
C527        C  0.17876314  0.68799789  0.78306969     0.33400
C528        C  0.16547136  0.73085422  0.72912490    -0.02800
C529        C  0.14731089  0.65375525  0.72995404    -0.03500
C530        C  0.22337840  0.67603445  0.72968456    -0.03400
C531        C  0.16534160  0.73162706  0.76497216    -0.02800
C532        C  0.14735454  0.65438343  0.76581863    -0.03500
C533        C  0.22332324  0.67661967  0.76558131    -0.03400
C534        C  0.14724755  0.77199355  0.77451149    -0.28800
N535        N  0.13684574  0.79530214  0.74590705     0.17700
C536        C  0.14770346  0.77060986  0.71820074    -0.28800
H537        H  0.14134490  0.78008842  0.69205327     0.19600
C538        C  0.11925586  0.62104131  0.77647847    -0.27800
N539        N  0.10246422  0.60053184  0.74850517     0.16400
C540        C  0.11917245  0.62002730  0.72007520    -0.27800
C541        C  0.26296999  0.65791140  0.77604396    -0.28100
N542        N  0.28697638  0.64666274  0.74804079     0.16900
H543        H  0.27254386  0.65072454  0.80203448     0.19500
C544        C  0.26314244  0.65706042  0.71972987    -0.28100
H545        H  0.27289136  0.64909299  0.69392170     0.19500
H546        H  0.11201982  0.60986465  0.69420818     0.19500
H547        H  0.14041885  0.78281961  0.80031518     0.19600
H548        H  0.11217504  0.61184218  0.80253104     0.19500
C549        C  0.37559153  0.17413269  0.53946807     0.33400
C550        C  0.37668497  0.17695222  0.96841610     0.33400
C551        C  0.39268753  0.21751683  0.52304371    -0.02800
C552        C  0.40463191  0.13900539  0.52126962    -0.03500
C553        C  0.33051693  0.16763528  0.52129906    -0.03400
C554        C  0.39330891  0.21896606  0.98720995    -0.02800
C555        C  0.40506166  0.14048318  0.98542180    -0.03500
C556        C  0.33106217  0.16899040  0.98542812    -0.03400
C557        C  0.41109852  0.25963196  0.97820196    -0.28800
N558        N  0.42102273  0.28257344  0.50707335     0.17700
C559        C  0.41002720  0.25730781  0.53449481    -0.28800
H560        H  0.41464245  0.26701265  0.56081660     0.19600
C561        C  0.43263814  0.10682166  0.97444319    -0.27800
N562        N  0.44891557  0.08527022  0.50215060     0.16400
C563        C  0.43216235  0.10442369  0.53078143    -0.27800
C564        C  0.29045251  0.15292981  0.97452377    -0.28100
N565        N  0.26547308  0.14257694  0.50221873     0.16900
H566        H  0.28086100  0.14662219  0.94838265     0.19500
C567        C  0.28958478  0.15088700  0.53077784    -0.28100
H568        H  0.27921587  0.14270877  0.55639476     0.19500
H569        H  0.43982417  0.09425839  0.55656881     0.19500
H570        H  0.41671764  0.27154349  0.95252075     0.19600
H571        H  0.44071339  0.09891201  0.94824417     0.19500
C572        C  0.37360943  0.17690317  0.78933565     0.33400
C573        C  0.37043033  0.17355842  0.71833684     0.33400
C574        C  0.38588513  0.22010254  0.77009775    -0.02800
C575        C  0.40447636  0.14281181  0.77180074    -0.03500
C576        C  0.32813866  0.16527137  0.77322320    -0.03400
C577        C  0.38417266  0.21825036  0.73430189    -0.02800
C578        C  0.40280396  0.14119886  0.73601756    -0.03500
C579        C  0.32651218  0.16354778  0.73738333    -0.03400
C580        C  0.39915285  0.25857475  0.72220274    -0.28800
N581        N  0.40992777  0.28464092  0.74915899     0.17700
C582        C  0.40205370  0.26170138  0.77843659    -0.28800
H583        H  0.40896253  0.27380965  0.80378358     0.19600
C584        C  0.43293815  0.10940551  0.72569505    -0.27800
N585        N  0.45269221  0.09189804  0.75374794     0.16400
C586        C  0.43575670  0.11189107  0.78196877    -0.27800
C587        C  0.28423444  0.14958857  0.72871248    -0.28100
N588        N  0.26045803  0.14301793  0.75775774     0.16900
H589        H  0.27215536  0.14320709  0.70325060     0.19500
C590        C  0.28676953  0.15238738  0.78498051    -0.28100
H591        H  0.27703750  0.14861153  0.81138487     0.19500
H592        H  0.44571562  0.10474406  0.80787846     0.19500
H593        H  0.40335296  0.26774100  0.69567457     0.19600
H594        H  0.44025052  0.09994851  0.69968046     0.19500
Zn595      Zn  0.50084113  0.57969189  0.98302751     1.49700
Zn596      Zn  0.57065693  0.54129956  0.52824161     1.49400
Zn597      Zn  0.46287499  0.50628998  0.51808130     1.49100
Zn598      Zn  0.53923523  0.47304321  0.97658968     1.49500
O599        O  0.52119107  0.52368011  0.50153152    -1.80700
O600        O  0.54613196  0.63010370  0.98247726    -0.71300
O601        O  0.53876140  0.55352979  0.57025331    -0.71100
O602        O  0.40809186  0.53897976  0.49967594    -0.70700
O603        O  0.59816589  0.60056681  0.51515801    -0.71300
O604        O  0.44151302  0.60390197  0.00056821    -0.70900
O605        O  0.46756769  0.53168796  0.56221608    -0.71500
O606        O  0.50798159  0.41522099  0.98991905    -0.70900
O607        O  0.62163337  0.49580296  0.52801008    -0.71700
O608        O  0.45053287  0.43971115  0.51972909    -0.71100
O609        O  0.60647786  0.46245490  0.97874992    -0.71500
O610        O  0.51449867  0.48967871  0.93270860    -0.71400
O611        O  0.48717700  0.55933984  0.93808941    -0.71200
C612        C  0.58351129  0.63269825  0.49745749     0.80600
C613        C  0.49797313  0.55106812  0.57877520     0.81100
C614        C  0.40595208  0.58114769  0.50033255     0.80000
C615        C  0.47225062  0.40793111  0.50635641     0.80400
C616        C  0.63300230  0.47041302  0.50340609     0.81500
C617        C  0.49289187  0.52327804  0.92206479     0.80600
Zn618      Zn  0.50110260  0.57918134  0.76545154     1.49700
Zn619      Zn  0.56901397  0.53683415  0.72020188     1.49400
Zn620      Zn  0.53623696  0.47151158  0.77308937     1.49100
Zn621      Zn  0.46038960  0.50573998  0.73185984     1.49500
O622        O  0.51936940  0.52200168  0.74763113    -1.80700
O623        O  0.54747597  0.62842248  0.76359380    -0.71300
O624        O  0.61865681  0.49011635  0.72120019    -0.71100
O625        O  0.51294283  0.49019294  0.81658610    -0.70700
O626        O  0.59821984  0.59649621  0.73101415    -0.71300
O627        O  0.48796987  0.56074115  0.81123175    -0.70900
O628        O  0.60309368  0.45926128  0.77129716    -0.71500
O629        O  0.44508715  0.43998908  0.73240735    -0.70900
O630        O  0.53694871  0.54739166  0.67822748    -0.71700
O631        O  0.50255483  0.41425696  0.76154014    -0.71100
O632        O  0.46477302  0.52936490  0.68697085    -0.71500
O633        O  0.40746623  0.54024306  0.75066614    -0.71400
O634        O  0.44218002  0.60439669  0.74811607    -0.71200
C635        C  0.58446982  0.62975286  0.74796476     0.80600
C636        C  0.62966944  0.46567620  0.74643380     0.81100
C637        C  0.49276302  0.52453673  0.82733029     0.80000
C638        C  0.46583032  0.40789818  0.74617617     0.80400
C639        C  0.49600517  0.54677646  0.66999127     0.81500
C640        C  0.40622529  0.58234811  0.74925393     0.80600
C641        C  0.47625432  0.52150162  0.88956133    -0.09800
C642        C  0.47624054  0.52267510  0.85986534    -0.11400
C643        C  0.48609394  0.56812308  0.60981822    -0.09800
C644        C  0.48491993  0.56568527  0.63938580    -0.11400
C645        C  0.42937893  0.32723551  0.74701225    -0.09800
C646        C  0.44641708  0.36377636  0.74563319    -0.11400
C647        C  0.37532963  0.17820211  0.82841413    -0.15100
C648        C  0.37625545  0.17852741  0.86009157     0.09000
C649        C  0.37692177  0.17845465  0.89763032     0.10800
C650        C  0.37710972  0.17806398  0.92931267    -0.15900
C651        C  0.36984367  0.17216632  0.67928439    -0.15100
C652        C  0.37089180  0.17200107  0.64763457     0.09000
C653        C  0.37284669  0.17231324  0.61016087     0.10800
C654        C  0.37447786  0.17283606  0.57852469    -0.15900
C655        C  0.43960889  0.32564828  0.50830761    -0.09800
C656        C  0.45510379  0.36293438  0.50855114    -0.11400
C657        C  0.36379229  0.60522506  0.74882242    -0.09800
C658        C  0.32826786  0.62438846  0.74839233    -0.11400
C659        C  0.18148494  0.68895608  0.92285443    -0.15100
C660        C  0.18095301  0.68876728  0.89122183     0.09000
C661        C  0.17988428  0.68856188  0.85376167     0.10800
C662        C  0.17905597  0.68835605  0.82212298    -0.15900
C663        C  0.17841380  0.68659997  0.67288316    -0.15100
C664        C  0.17790774  0.68758980  0.64121810     0.09000
C665        C  0.17731360  0.68917405  0.60370517     0.10800
C666        C  0.17716740  0.69032173  0.57203197    -0.15900
C667        C  0.32773700  0.62324729  0.50073979    -0.09800
C668        C  0.36306058  0.60350981  0.50076408    -0.11400
C669        C  0.18003715  0.10896283  0.75970804    -0.09800
C670        C  0.21697144  0.12535089  0.75926449    -0.11400
C671        C  0.09756435  0.87318371  0.74380156    -0.09800
C672        C  0.11549182  0.83704928  0.74486104    -0.11400
C673        C  0.22301015  0.12263795  0.50141866    -0.09800
C674        C  0.18638193  0.10568049  0.50086124    -0.11400
C675        C  0.09583762  0.87430973  0.49081194    -0.09800
C676        C  0.11425555  0.83849434  0.49252115    -0.11400
C677        C  0.04496398  0.07090685  0.88934451    -0.09800
C678        C  0.04335302  0.06563168  0.86003637    -0.11400
C679        C  0.06607473  0.06692735  0.63961543    -0.09800
C680        C  0.06775066  0.06412395  0.61002247    -0.11400
C681        C  0.48621784  0.05913124  0.75332865    -0.15100
C682        C  0.51531026  0.03123992  0.75225177     0.09000
C683        C  0.54979419  0.99886546  0.75048754     0.10800
C684        C  0.57921182  0.97133186  0.74923576    -0.15900
C685        C  0.63054555  0.70535995  0.74838219    -0.09800
C686        C  0.61059393  0.67027346  0.74861193    -0.11400
C687        C  0.84233187  0.91963138  0.74431711    -0.09800
C688        C  0.87699319  0.94037409  0.74296503    -0.11400
C689        C  0.47999010  0.05020300  0.50119678    -0.15100
C690        C  0.50746054  0.02071737  0.00003782     0.09000
C691        C  0.54077376  0.98711407  0.99875043     0.10800
C692        C  0.56996529  0.95932618  0.49808597    -0.15900
C693        C  0.69542312  0.85595106  0.92318584    -0.15100
C694        C  0.69493992  0.85582207  0.89149712     0.09000
C695        C  0.69446515  0.85564845  0.85394703     0.10800
C696        C  0.69431564  0.85559554  0.82225558    -0.15900
C697        C  0.69356764  0.85387288  0.57233551    -0.15100
C698        C  0.69322278  0.85401814  0.60396730     0.09000
C699        C  0.69275489  0.85448806  0.64142149     0.10800
C700        C  0.69243204  0.85495326  0.67305182    -0.15900
C701        C  0.60934374  0.67321655  0.49537052    -0.09800
C702        C  0.63095570  0.70724701  0.49545843    -0.11400
C703        C  0.87620134  0.94709895  0.00264674    -0.09800
C704        C  0.84116996  0.92687020  0.50144695    -0.11400
C705        C  0.98451918  0.47273421  0.75100839    -0.15100
C706        C  0.01396206  0.50006478  0.75045024     0.09000
C707        C  0.04657432  0.53405307  0.74959396     0.10800
C708        C  0.07283225  0.56444225  0.74898693    -0.15900
C709        C  0.92816636  0.17591400  0.75299441    -0.09800
C710        C  0.91047033  0.21217656  0.75259716    -0.11400
C711        C  0.70995549  0.42799691  0.74810513    -0.09800
C712        C  0.67332127  0.44503424  0.74708910    -0.11400
C713        C  0.97595679  0.48385362  0.49587059    -0.15100
C714        C  0.00313126  0.51345906  0.99495669     0.09000
C715        C  0.03560314  0.54766464  0.99477537     0.10800
C716        C  0.06378410  0.57632454  0.49523867    -0.15900
C717        C  0.86027056  0.36747092  0.82563909    -0.15100
C718        C  0.86038848  0.36680005  0.85731629     0.09000
C719        C  0.86066444  0.36582961  0.89484481     0.10800
C720        C  0.86099533  0.36536736  0.92652352    -0.15900
C721        C  0.86457175  0.37002362  0.57568598    -0.15100
C722        C  0.86440881  0.36930465  0.60732546     0.09000
C723        C  0.86371732  0.36794794  0.64478466     0.10800
C724        C  0.86293698  0.36696659  0.67641547    -0.15900
C725        C  0.91662587  0.21434709  0.00596181    -0.09800
C726        C  0.93552869  0.17876519  0.00809528    -0.11400
C727        C  0.71328017  0.43249790  0.50275170    -0.09800
C728        C  0.67687046  0.45009630  0.50332721    -0.11400
loop_ 
_geom_bond_atom_site_label_1 
_geom_bond_atom_site_label_2 
_geom_bond_distance 
_geom_bond_site_symmetry_2 
_ccdc_geom_bond_type 
C1            C3   1.544       .  S
C1            C5   1.543       .  S
C1            C4   1.546       .  S
C1          C357   1.533       .  S
C2            C6   1.550       .  S
C2            C8   1.553       .  S
C2            C7   1.543       .  S
C2          C356   1.535       .  S
C3           C11   1.382       .  A
C3          C370   1.408   1_554  A
C4           C15   1.381       .  A
C4          C371   1.408   1_554  A
C5           C19   1.380       .  A
C5          C372   1.408   1_554  A
C6            C9   1.385       .  A
C6          C367   1.408       .  A
C7           C13   1.380       .  A
C7          C368   1.408       .  A
C8           C16   1.387       .  A
C8          C369   1.408       .  A
C9           N10   1.362       .  A
C9           H22   1.082       .  S
N10         C375   1.359       .  A
N10         C727   1.415       .  S
C11         N374   1.359       .  A
C11          H12   1.085       .  S
C13         N378   1.358       .  A
C13          H23   1.082       .  S
N14          C15   1.359   1_556  A
N14         C377   1.358       .  A
N14         C349   1.409       .  S
C15          H21   1.082       .  S
C16          N17   1.363       .  A
C16          H18   1.085       .  S
N17         C383   1.358       .  A
N17         C361   1.415       .  S
C19         N381   1.358       .  A
C19          H20   1.085       .  S
C24          C26   1.547       .  S
C24          C28   1.545       .  S
C24          C27   1.541       .  S
C24         C360   1.533       .  S
C25          C29   1.546       .  S
C25          C31   1.550       .  S
C25          C30   1.545       .  S
C25         C353   1.535       .  S
C26          C34   1.383       .  A
C26          C29   1.408       .  A
C27          C38   1.378       .  A
C27          C30   1.407       .  A
C28          C42   1.382       .  A
C28          C31   1.408       .  A
C29          C32   1.383       .  A
C30          C36   1.381       .  A
C31          C39   1.385       .  A
C32          N33   1.360       .  A
C32          H45   1.083       .  S
N33          C34   1.360       .  A
N33         C346   1.414       .  S
C34          H35   1.083       .  S
C36          N37   1.359       .  A
C36          H46   1.082       .  S
N37          C38   1.357       .  A
N37         C341   1.408       .  S
C38          H44   1.084       .  S
C39          N40   1.361       .  A
C39          H41   1.084       .  S
N40          C42   1.359       .  A
N40         C347   1.415       .  S
C42          H43   1.081       .  S
C47          C49   1.547       .  S
C47          C51   1.544       .  S
C47          C50   1.543       .  S
C47         C333   1.532       .  S
C48          C52   1.548       .  S
C48          C54   1.553       .  S
C48          C53   1.546       .  S
C48         C329   1.536       .  S
C49          C57   1.384       .  A
C49         C416   1.414   1_554  A
C50          C61   1.381       .  A
C50         C417   1.406   1_554  A
C51          C65   1.383       .  A
C51         C418   1.407   1_554  A
C52          C55   1.384       .  A
C52         C413   1.414       .  A
C53          C59   1.382       .  A
C53         C414   1.406       .  A
C54          C62   1.387       .  A
C54         C415   1.407       .  A
C55         N420   1.357       .  A
C55          H68   1.083       .  S
N56          C57   1.358   1_556  A
N56         C419   1.357       .  A
N56         C338   1.413       .  S
C57          H58   1.084       .  S
C59         N424   1.360       .  A
C59          H69   1.082       .  S
N60          C61   1.359   1_556  A
N60         C423   1.360       .  A
N60         C328   1.412       .  S
C61          H67   1.082       .  S
C62         N427   1.363       .  A
C62          H64   1.084       .  S
N63          C65   1.359       .  A
N63         C426   1.363   1_554  A
N63         C340   1.418       .  S
C65          H66   1.084       .  S
C70          C72   1.549       .  S
C70          C74   1.552       .  S
C70          C73   1.544       .  S
C70         C332   1.536       .  S
C71          C75   1.546       .  S
C71          C77   1.544       .  S
C71          C76   1.547       .  S
C71         C336   1.532       .  S
C72          C80   1.384       .  A
C72          C75   1.407       .  A
C73          C84   1.380       .  A
C73          C76   1.407       .  A
C74          C88   1.387       .  A
C74          C77   1.410       .  A
C75          C78   1.384       .  A
C76          C82   1.383       .  A
C77          C85   1.381       .  A
C78          N79   1.360       .  A
C78          H91   1.083       .  S
N79          C80   1.361       .  A
N79         C321   1.415       .  S
C80          H81   1.080       .  S
C82          N83   1.360       .  A
C82          H92   1.082       .  S
N83          C84   1.358       .  A
N83         C320   1.412       .  S
C84          H90   1.083       .  S
C85          N86   1.358       .  A
C85          H87   1.081       .  S
N86          C88   1.362       .  A
N86         C323   1.416       .  S
C88          H89   1.083       .  S
Zn93         O97   1.878   1_565  S
Zn93         O98   2.056   1_455  S
Zn93        O102   2.080       .  S
Zn93        O109   1.955   1_565  S
Zn94        O461   1.892   1_655  S
Zn94         O99   1.961   1_655  S
Zn94        O101   2.065   1_545  S
Zn94        O105   2.068       .  S
Zn95        O461   1.917       .  S
Zn95        O100   1.999   1_545  S
Zn95        O103   1.900       .  S
Zn95        O106   2.039   1_554  S
Zn96         O97   1.952       .  S
Zn96        O104   2.048       .  S
Zn96        O107   2.016       .  S
Zn96        O108   1.885       .  S
O97        Zn458   1.892   1_455  S
O97        Zn459   1.917       .  S
O98         C110   1.278       .  A
O99         C111   1.278       .  A
O100        C476   1.269   1_554  A
O101        C474   1.280       .  A
O102        C112   1.278       .  A
O103        C111   1.266       .  A
O104        C113   1.272       .  A
O105        C478   1.275       .  A
O106        C477   1.271   1_556  A
O107        C114   1.268   1_455  A
O108        C115   1.262       .  A
O109        C115   1.278       .  A
C110        O465   1.280       .  A
C110        C339   1.459       .  S
C111        C316   1.373       .  S
C112        O464   1.269       .  A
C112        C675   1.451       .  S
C113        O470   1.271       .  A
C113        C674   1.452       .  S
C114        O469   1.275       .  A
C114        C362   1.454       .  S
C115        C313   1.365       .  S
Zn116       O120   1.956       .  S
Zn116       O121   2.024   1_455  S
Zn116       O125   1.890       .  S
Zn116       O132   2.046       .  S
Zn117       O120   1.898   1_655  S
Zn117       O122   2.023   1_545  S
Zn117       O124   2.060       .  S
Zn117       O128   1.927       .  S
Zn118       O120   1.888   1_565  S
Zn118       O123   1.982   1_565  S
Zn118       O126   2.088   1_455  S
Zn118       O129   2.078       .  S
Zn119       O120   1.923       .  S
Zn119       O127   2.014   1_545  S
Zn119       O130   1.899       .  S
Zn119       O131   2.043       .  S
O121        C133   1.269       .  A
O122        C134   1.275       .  A
O123        C135   1.281       .  A
O124        C133   1.274       .  A
O125        C135   1.262       .  A
O126        C134   1.283       .  A
O127        C136   1.270       .  A
O128        C137   1.271   1_655  A
O129        C136   1.278       .  A
O130        C137   1.267       .  A
O131        C138   1.272       .  A
O132        C138   1.272       .  A
C133        C345   1.452       .  S
C134        C324   1.456       .  S
C135        C315   1.374       .  S
C136        C307   1.453       .  S
C137        C314   1.366       .  S
C138        C305   1.454       .  S
C139        C141   1.542       .  S
C139        C143   1.546       .  S
C139        C142   1.540       .  S
C139        C295   1.532       .  S
C140        C144   1.554       .  S
C140        C146   1.549       .  S
C140        C145   1.545       .  S
C140        C302   1.536       .  S
C141        C149   1.380       .  A
C141        C508   1.410       .  A
C142        C153   1.378       .  A
C142        C509   1.406       .  A
C143        C157   1.383       .  A
C143        C510   1.409       .  A
C144        C147   1.387       .  A
C144        C505   1.410   1_554  A
C145        C151   1.381       .  A
C145        C506   1.406   1_554  A
C146        C154   1.386       .  A
C146        C507   1.409   1_554  A
C147        N148   1.362   1_554  A
C147        H160   1.082       .  S
N148        C513   1.356       .  A
N148        C312   1.413       .  S
C149        N512   1.356       .  A
C149        H150   1.083       .  S
C151        N152   1.359   1_554  A
C151        H161   1.082       .  S
N152        C517   1.357       .  A
N152        C352   1.408       .  S
C153        N516   1.357       .  A
C153        H159   1.082       .  S
C154        N155   1.361   1_554  A
C154        H156   1.081       .  S
N155        C521   1.359       .  A
N155        C303   1.416   1_556  S
C157        N519   1.359       .  A
C157        H158   1.082       .  S
C162        C164   1.543       .  S
C162        C166   1.547       .  S
C162        C165   1.544       .  S
C162        C299   1.535       .  S
C163        C167   1.549       .  S
C163        C169   1.545       .  S
C163        C168   1.543       .  S
C163        C298   1.533       .  S
C164        C172   1.381       .  A
C164        C167   1.408       .  A
C165        C176   1.380       .  A
C165        C168   1.408       .  A
C166        C180   1.383       .  A
C166        C169   1.409       .  A
C167        C170   1.385       .  A
C168        C174   1.379       .  A
C169        C177   1.382       .  A
C170        N171   1.361       .  A
C170        H183   1.084       .  S
N171        C172   1.358       .  A
N171        C308   1.414       .  S
C172        H173   1.083       .  S
C174        N175   1.358       .  A
C174        H184   1.081       .  S
N175        C176   1.358       .  A
N175        C344   1.408       .  S
C176        H182   1.082       .  S
C177        N178   1.359       .  A
C177        H179   1.082       .  S
N178        C180   1.359       .  A
N178        C294   1.413       .  S
C180        H181   1.082       .  S
C185        C187   1.547       .  S
C185        C189   1.546       .  S
C185        C188   1.548       .  S
C185        C290   1.534       .  S
C186        C190   1.549       .  S
C186        C192   1.546       .  S
C186        C191   1.544       .  S
C186        C286   1.536       .  S
C187        C195   1.384       .  A
C187        C554   1.408   1_554  A
C188        C199   1.383       .  A
C188        C555   1.408   1_554  A
C189        C203   1.383       .  A
C189        C556   1.409   1_554  A
C190        C193   1.384       .  A
C190        C551   1.408       .  A
C191        C197   1.380       .  A
C191        C552   1.408       .  A
C192        C200   1.383       .  A
C192        C553   1.409       .  A
C193        N558   1.361       .  A
C193        H206   1.084       .  S
N194        C195   1.360       .  A
N194        C557   1.361   1_554  A
N194        C291   1.415       .  S
C195        H196   1.083       .  S
C197        N562   1.358       .  A
C197        H207   1.083       .  S
N198        C199   1.361       .  A
N198        C561   1.358   1_554  A
N198        C325   1.412       .  S
C199        H205   1.083       .  S
C200        N565   1.359       .  A
C200        H202   1.083       .  S
N201        C203   1.359       .  A
N201        C564   1.359   1_554  A
N201        C309   1.413       .  S
C203        H204   1.082       .  S
C208        C210   1.551       .  S
C208        C212   1.548       .  S
C208        C211   1.547       .  S
C208        C283   1.536       .  S
C209        C213   1.543       .  S
C209        C215   1.549       .  S
C209        C214   1.544       .  S
C209        C287   1.534       .  S
C210        C218   1.385       .  A
C210        C213   1.407       .  A
C211        C222   1.384       .  A
C211        C214   1.407       .  A
C212        C226   1.384       .  A
C212        C215   1.409       .  A
C213        C216   1.381       .  A
C214        C220   1.380       .  A
C215        C223   1.383       .  A
C216        N217   1.358       .  A
C216        H229   1.085       .  S
N217        C218   1.362       .  A
N217        C281   1.414       .  S
C218        H219   1.080       .  S
C220        N221   1.358       .  A
C220        H230   1.083       .  S
N221        C222   1.360       .  A
N221        C317   1.412       .  S
C222        H228   1.082       .  S
C223        N224   1.361       .  A
C223        H225   1.081       .  S
N224        C226   1.360       .  A
N224        C306   1.415       .  S
C226        H227   1.083       .  S
Zn231       O599   1.938       .  S
Zn231       O236   2.043       .  S
Zn231       O240   2.048       .  S
Zn231       O247   1.913       .  S
Zn232       O235   1.897       .  S
Zn232       O237   1.944       .  S
Zn232       O239   2.036       .  S
Zn232       O243   2.058       .  S
Zn233       O235   1.944       .  S
Zn233       O238   2.052   1_554  S
Zn233       O241   1.900       .  S
Zn233       O244   2.043       .  S
Zn234       O599   1.893       .  S
Zn234       O242   2.050       .  S
Zn234       O245   2.051       .  S
Zn234       O246   1.943       .  S
O235       Zn595   1.938   1_554  S
O235       Zn598   1.893   1_554  S
O236        C612   1.272       .  A
O237        C249   1.275       .  A
O238        C250   1.273   1_556  A
O239        C248   1.271   1_554  A
O240        C614   1.272       .  A
O241        C249   1.266       .  A
O242        C615   1.274       .  A
O243        C252   1.279       .  A
O244        C251   1.273       .  A
O245        C616   1.278       .  A
O246        C253   1.274       .  A
O247        C253   1.268       .  A
C248        O600   1.272       .  A
C248        C337   1.451       .  S
C249        C279   1.370       .  S
C250        O604   1.272       .  A
C250        C304   1.457       .  S
C251        O606   1.274   1_554  A
C251        C292   1.454       .  S
C252        O609   1.278   1_554  A
C252        C364   1.456       .  S
C253        C277   1.372       .  S
Zn254       O258   1.940       .  S
Zn254       O259   2.040       .  S
Zn254       O263   1.922       .  S
Zn254       O270   2.046       .  S
Zn255       O258   1.896       .  S
Zn255       O260   2.054       .  S
Zn255       O262   2.047       .  S
Zn255       O266   1.936       .  S
Zn256       O258   1.890       .  S
Zn256       O261   1.930       .  S
Zn256       O264   2.047       .  S
Zn256       O267   2.053       .  S
Zn257       O258   1.944       .  S
Zn257       O265   2.036       .  S
Zn257       O268   1.905       .  S
Zn257       O269   2.041       .  S
O259        C271   1.272       .  A
O260        C272   1.278       .  A
O261        C273   1.272       .  A
O262        C271   1.273       .  A
O263        C273   1.270       .  A
O264        C272   1.277       .  A
O265        C274   1.272       .  A
O266        C275   1.274       .  A
O267        C274   1.274       .  A
O268        C275   1.267       .  A
O269        C276   1.271       .  A
O270        C276   1.271       .  A
C271        C322   1.454       .  S
C272        C348   1.454       .  S
C273        C278   1.372       .  S
C274        C282   1.454       .  S
C275        C280   1.371       .  S
C276        C293   1.452       .  S
C277        C278   1.166       .  T
C279        C280   1.164       .  T
C281        C282   1.217       .  T
C283        C284   1.244       .  T
C284        C285   1.474       .  S
C285        C286   1.244       .  T
C287        C288   1.243       .  T
C288        C289   1.472       .  S
C289        C290   1.243       .  T
C291        C292   1.217       .  T
C293        C294   1.215       .  T
C295        C296   1.242       .  T
C296        C297   1.471       .  S
C297        C298   1.242       .  T
C299        C300   1.244       .  T
C300        C301   1.474       .  S
C301        C302   1.244       .  T
C303        C304   1.218       .  T
C305        C306   1.217       .  T
C307        C308   1.216       .  T
C309        C310   1.216       .  T
C310        C477   1.452       .  S
C311        C476   1.451       .  S
C311        C312   1.216       .  T
C313        C314   1.163       .  T
C315        C316   1.166       .  T
C317        C318   1.215       .  T
C318        C319   1.426   1_545  S
C319        C320   1.215       .  T
C321        C322   1.217       .  T
C323        C324   1.218       .  T
C325        C690   1.215       .  T
C326        C689   1.215       .  T
C326        C327   1.426   1_545  S
C327        C692   1.214       .  T
C328        C691   1.214       .  T
C329        C330   1.244       .  T
C330        C331   1.474       .  S
C331        C332   1.244       .  T
C333        C334   1.242       .  T
C334        C335   1.471       .  S
C335        C336   1.242       .  T
C337        C338   1.215       .  T
C339        C704   1.220       .  T
C340        C703   1.220       .  T
C341        C342   1.211   1_655  T
C342        C343   1.420       .  S
C343        C344   1.211       .  T
C345        C346   1.216       .  T
C347        C348   1.217       .  T
C349        C714   1.212   1_655  T
C350        C713   1.212   1_455  T
C350        C351   1.421       .  S
C351        C716   1.212       .  T
C352        C715   1.212       .  T
C353        C354   1.244       .  T
C354        C355   1.474       .  S
C355        C356   1.244       .  T
C357        C358   1.242       .  T
C358        C359   1.471       .  S
C359        C360   1.242       .  T
C361        C362   1.217       .  T
C363        N374   1.415       .  S
C363        C364   1.218       .  T
C365        C367   1.544       .  S
C365        C369   1.543       .  S
C365        C368   1.546       .  S
C365        C721   1.533       .  S
C366        C370   1.550       .  S
C366        C372   1.553       .  S
C366        C371   1.543       .  S
C366        C720   1.535       .  S
C367        C375   1.382       .  A
C368        C379   1.381       .  A
C369        C383   1.380       .  A
C370        C373   1.385       .  A
C371        C377   1.380       .  A
C372        C380   1.387       .  A
C373        N374   1.362   1_556  A
C373        H386   1.082       .  S
C375        H376   1.085       .  S
C377        H387   1.082       .  S
N378        C379   1.359       .  A
N378        C713   1.409       .  S
C379        H385   1.082       .  S
C380        N381   1.363   1_556  A
C380        H382   1.085       .  S
N381        C725   1.415       .  S
C383        H384   1.085       .  S
C388        C390   1.547       .  S
C388        C392   1.545       .  S
C388        C391   1.541       .  S
C388        C724   1.533       .  S
C389        C393   1.546       .  S
C389        C395   1.550       .  S
C389        C394   1.545       .  S
C389        C717   1.535       .  S
C390        C398   1.383       .  A
C390        C393   1.408       .  A
C391        C402   1.378       .  A
C391        C394   1.407       .  A
C392        C406   1.382       .  A
C392        C395   1.408       .  A
C393        C396   1.383       .  A
C394        C400   1.381       .  A
C395        C403   1.385       .  A
C396        N397   1.360       .  A
C396        H409   1.083       .  S
N397        C398   1.360       .  A
N397        C710   1.414       .  S
C398        H399   1.083       .  S
C400        N401   1.359       .  A
C400        H410   1.082       .  S
N401        C402   1.357       .  A
N401        C705   1.408       .  S
C402        H408   1.084       .  S
C403        N404   1.361       .  A
C403        H405   1.084       .  S
N404        C406   1.360       .  A
N404        C711   1.415       .  S
C406        H407   1.081       .  S
C411        C413   1.547       .  S
C411        C415   1.544       .  S
C411        C414   1.543       .  S
C411        C697   1.532       .  S
C412        C416   1.548       .  S
C412        C418   1.553       .  S
C412        C417   1.546       .  S
C412        C693   1.536       .  S
C413        C421   1.384       .  A
C414        C425   1.381       .  A
C415        C429   1.383       .  A
C416        C419   1.384       .  A
C417        C423   1.382       .  A
C418        C426   1.387       .  A
C419        H432   1.083       .  S
N420        C421   1.358       .  A
N420        C702   1.413       .  S
C421        H422   1.084       .  S
C423        H433   1.082       .  S
N424        C425   1.359       .  A
N424        C692   1.412       .  S
C425        H431   1.082       .  S
C426        H428   1.084       .  S
N427        C429   1.359       .  A
N427        C704   1.418       .  S
C429        H430   1.084       .  S
C434        C436   1.549       .  S
C434        C438   1.552       .  S
C434        C437   1.544       .  S
C434        C696   1.536       .  S
C435        C439   1.546       .  S
C435        C441   1.544       .  S
C435        C440   1.547       .  S
C435        C700   1.532       .  S
C436        C444   1.384       .  A
C436        C439   1.407       .  A
C437        C448   1.380       .  A
C437        C440   1.407       .  A
C438        C452   1.387       .  A
C438        C441   1.410       .  A
C439        C442   1.384       .  A
C440        C446   1.383       .  A
C441        C449   1.381       .  A
C442        N443   1.360       .  A
C442        H455   1.083       .  S
N443        C444   1.361       .  A
N443        C685   1.415       .  S
C444        H445   1.080       .  S
C446        N447   1.360       .  A
C446        H456   1.082       .  S
N447        C448   1.358       .  A
N447        C684   1.412       .  S
C448        H454   1.083       .  S
C449        N450   1.358       .  A
C449        H451   1.081       .  S
N450        C452   1.362       .  A
N450        C687   1.416       .  S
C452        H453   1.083       .  S
Zn457       O461   1.878   1_566  S
Zn457       O462   2.056   1_455  S
Zn457       O466   2.080       .  S
Zn457       O473   1.955   1_565  S
Zn458       O463   1.961   1_655  S
Zn458       O465   2.065   1_545  S
Zn458       O469   2.068       .  S
Zn459       O464   1.999   1_545  S
Zn459       O467   1.900       .  S
Zn459       O470   2.039       .  S
Zn460       O461   1.952   1_556  S
Zn460       O468   2.048   1_556  S
Zn460       O471   2.016   1_556  S
Zn460       O472   1.885       .  S
O462        C474   1.278   1_556  A
O463        C475   1.278       .  A
O466        C476   1.278       .  A
O467        C475   1.266       .  A
O468        C477   1.272       .  A
O471        C478   1.268   1_455  A
O472        C479   1.262       .  A
O473        C479   1.278       .  A
C474        C703   1.459       .  S
C475        C680   1.373       .  S
C478        C726   1.454       .  S
C479        C677   1.365       .  S
Zn480       O484   1.956       .  S
Zn480       O485   2.024   1_455  S
Zn480       O489   1.890       .  S
Zn480       O496   2.046       .  S
Zn481       O484   1.898   1_655  S
Zn481       O486   2.023   1_545  S
Zn481       O488   2.060       .  S
Zn481       O492   1.927       .  S
Zn482       O484   1.888   1_565  S
Zn482       O487   1.982   1_565  S
Zn482       O490   2.088   1_455  S
Zn482       O493   2.078       .  S
Zn483       O484   1.923       .  S
Zn483       O491   2.014   1_545  S
Zn483       O494   1.899       .  S
Zn483       O495   2.043       .  S
O485        C497   1.269       .  A
O486        C498   1.275       .  A
O487        C499   1.281       .  A
O488        C497   1.274       .  A
O489        C499   1.262       .  A
O490        C498   1.283       .  A
O491        C500   1.270       .  A
O492        C501   1.271   1_655  A
O493        C500   1.278       .  A
O494        C501   1.267       .  A
O495        C502   1.272       .  A
O496        C502   1.272       .  A
C497        C709   1.452       .  S
C498        C688   1.456       .  S
C499        C679   1.374       .  S
C500        C671   1.453       .  S
C501        C678   1.366       .  S
C502        C669   1.454       .  S
C503        C505   1.542       .  S
C503        C507   1.546       .  S
C503        C506   1.540       .  S
C503        C659   1.532       .  S
C504        C508   1.554       .  S
C504        C510   1.549       .  S
C504        C509   1.545       .  S
C504        C666   1.536       .  S
C505        C513   1.380       .  A
C506        C517   1.378       .  A
C507        C521   1.383       .  A
C508        C511   1.387       .  A
C509        C515   1.381       .  A
C510        C518   1.386       .  A
C511        N512   1.362       .  A
C511        H524   1.082       .  S
N512        C676   1.413       .  S
C513        H514   1.083       .  S
C515        N516   1.359       .  A
C515        H525   1.082       .  S
N516        C716   1.408       .  S
C517        H523   1.082       .  S
C518        N519   1.361       .  A
C518        H520   1.081       .  S
N519        C667   1.416       .  S
C521        H522   1.082       .  S
C526        C528   1.543       .  S
C526        C530   1.547       .  S
C526        C529   1.544       .  S
C526        C663   1.535       .  S
C527        C531   1.549       .  S
C527        C533   1.545       .  S
C527        C532   1.543       .  S
C527        C662   1.533       .  S
C528        C536   1.381       .  A
C528        C531   1.408       .  A
C529        C540   1.380       .  A
C529        C532   1.408       .  A
C530        C544   1.383       .  A
C530        C533   1.409       .  A
C531        C534   1.385       .  A
C532        C538   1.379       .  A
C533        C541   1.382       .  A
C534        N535   1.361       .  A
C534        H547   1.084       .  S
N535        C536   1.358       .  A
N535        C672   1.414       .  S
C536        H537   1.083       .  S
C538        N539   1.358       .  A
C538        H548   1.081       .  S
N539        C540   1.358       .  A
N539        C708   1.408       .  S
C540        H546   1.082       .  S
C541        N542   1.359       .  A
C541        H543   1.082       .  S
N542        C544   1.359       .  A
N542        C658   1.413       .  S
C544        H545   1.082       .  S
C549        C551   1.547       .  S
C549        C553   1.546       .  S
C549        C552   1.548       .  S
C549        C654   1.534       .  S
C550        C554   1.549       .  S
C550        C556   1.546       .  S
C550        C555   1.544       .  S
C550        C650   1.536       .  S
C551        C559   1.384       .  A
C552        C563   1.383       .  A
C553        C567   1.383       .  A
C554        C557   1.384       .  A
C555        C561   1.380       .  A
C556        C564   1.383       .  A
C557        H570   1.084       .  S
N558        C559   1.360       .  A
N558        C655   1.415       .  S
C559        H560   1.083       .  S
C561        H571   1.083       .  S
N562        C563   1.361       .  A
N562        C689   1.412       .  S
C563        H569   1.083       .  S
C564        H566   1.083       .  S
N565        C567   1.359       .  A
N565        C673   1.413       .  S
C567        H568   1.082       .  S
C572        C574   1.551       .  S
C572        C576   1.548       .  S
C572        C575   1.547       .  S
C572        C647   1.536       .  S
C573        C577   1.543       .  S
C573        C579   1.549       .  S
C573        C578   1.544       .  S
C573        C651   1.534       .  S
C574        C582   1.385       .  A
C574        C577   1.407       .  A
C575        C586   1.384       .  A
C575        C578   1.407       .  A
C576        C590   1.384       .  A
C576        C579   1.409       .  A
C577        C580   1.381       .  A
C578        C584   1.380       .  A
C579        C587   1.383       .  A
C580        N581   1.358       .  A
C580        H593   1.085       .  S
N581        C582   1.362       .  A
N581        C645   1.414       .  S
C582        H583   1.080       .  S
C584        N585   1.358       .  A
C584        H594   1.083       .  S
N585        C586   1.360       .  A
N585        C681   1.412       .  S
C586        H592   1.082       .  S
C587        N588   1.361       .  A
C587        H589   1.081       .  S
N588        C590   1.360       .  A
N588        C670   1.415       .  S
C590        H591   1.083       .  S
Zn595       O600   2.043       .  S
Zn595       O604   2.048   1_556  S
Zn595       O611   1.913       .  S
Zn596       O599   1.898       .  S
Zn596       O601   1.944       .  S
Zn596       O603   2.036       .  S
Zn596       O607   2.058       .  S
Zn597       O599   1.944       .  S
Zn597       O602   2.052       .  S
Zn597       O605   1.900       .  S
Zn597       O608   2.043       .  S
Zn598       O606   2.050       .  S
Zn598       O609   2.051       .  S
Zn598       O610   1.943       .  S
O601        C613   1.275       .  A
O602        C614   1.273       .  A
O603        C612   1.271       .  A
O605        C613   1.266       .  A
O607        C616   1.279       .  A
O608        C615   1.273       .  A
O610        C617   1.274       .  A
O611        C617   1.268       .  A
C612        C701   1.451       .  S
C613        C643   1.370       .  S
C614        C668   1.457       .  S
C615        C656   1.454       .  S
C616        C728   1.456       .  S
C617        C641   1.372       .  S
Zn618       O622   1.940       .  S
Zn618       O623   2.040       .  S
Zn618       O627   1.923       .  S
Zn618       O634   2.046       .  S
Zn619       O622   1.896       .  S
Zn619       O624   2.054       .  S
Zn619       O626   2.047       .  S
Zn619       O630   1.936       .  S
Zn620       O622   1.890       .  S
Zn620       O625   1.930       .  S
Zn620       O628   2.047       .  S
Zn620       O631   2.053       .  S
Zn621       O622   1.944       .  S
Zn621       O629   2.036       .  S
Zn621       O632   1.905       .  S
Zn621       O633   2.041       .  S
O623        C635   1.272       .  A
O624        C636   1.278       .  A
O625        C637   1.272       .  A
O626        C635   1.273       .  A
O627        C637   1.270       .  A
O628        C636   1.277       .  A
O629        C638   1.272       .  A
O630        C639   1.274       .  A
O631        C638   1.274       .  A
O632        C639   1.267       .  A
O633        C640   1.271       .  A
O634        C640   1.271       .  A
C635        C686   1.454       .  S
C636        C712   1.454       .  S
C637        C642   1.372       .  S
C638        C646   1.454       .  S
C639        C644   1.371       .  S
C640        C657   1.452       .  S
C641        C642   1.166       .  T
C643        C644   1.164       .  T
C645        C646   1.217       .  T
C647        C648   1.244       .  T
C648        C649   1.474       .  S
C649        C650   1.244       .  T
C651        C652   1.243       .  T
C652        C653   1.472       .  S
C653        C654   1.243       .  T
C655        C656   1.217       .  T
C657        C658   1.215       .  T
C659        C660   1.242       .  T
C660        C661   1.471       .  S
C661        C662   1.242       .  T
C663        C664   1.244       .  T
C664        C665   1.474       .  S
C665        C666   1.244       .  T
C667        C668   1.218       .  T
C669        C670   1.217       .  T
C671        C672   1.216       .  T
C673        C674   1.216       .  T
C675        C676   1.216       .  T
C677        C678   1.163       .  T
C679        C680   1.166       .  T
C681        C682   1.215       .  T
C682        C683   1.426   1_545  S
C683        C684   1.215       .  T
C685        C686   1.217       .  T
C687        C688   1.218       .  T
C690        C691   1.426   1_544  S
C693        C694   1.244       .  T
C694        C695   1.474       .  S
C695        C696   1.244       .  T
C697        C698   1.242       .  T
C698        C699   1.471       .  S
C699        C700   1.242       .  T
C701        C702   1.215       .  T
C705        C706   1.211   1_655  T
C706        C707   1.420       .  S
C707        C708   1.211       .  T
C709        C710   1.216       .  T
C711        C712   1.217       .  T
C714        C715   1.421       .  S
C717        C718   1.244       .  T
C718        C719   1.474       .  S
C719        C720   1.244       .  T
C721        C722   1.242       .  T
C722        C723   1.471       .  S
C723        C724   1.242       .  T
C725        C726   1.217       .  T
C727        C728   1.218       .  T
