geometry optimzed in LAMMPS
_audit_creation_date              2020-11-30 
_audit_creation_method            'lammps2cif' 
_symmetry_space_group_name_H-M    'P1' 
_symmetry_Int_Tables_number       1 
_symmetry_cell_setting            triclinic 
loop_ 
_symmetry_equiv_pos_as_xyz 
  x,y,z 
_cell_length_a                    40.1833132 
_cell_length_b                    41.09866557912326 
_cell_length_c                    41.01262180433457 
_cell_angle_alpha                 89.92989617675637 
_cell_angle_beta                  88.85946361022852 
_cell_angle_gamma                 89.95041723721344 
loop_ 
_atom_site_label 
_atom_site_type_symbol 
_atom_site_fract_x 
_atom_site_fract_y 
_atom_site_fract_z 
_atom_site_charge 
C1          C  0.26030129  0.85160162  0.95541554     0.03200
C2          C  0.26520783  0.83299017  0.98385692    -0.13000
C3          C  0.26388328  0.84768891  0.01488876     0.00700
C4          C  0.25796937  0.88124150  0.01711708    -0.11500
C5          C  0.25343070  0.90013222  0.98909053     0.03100
C6          C  0.25342710  0.88501681  0.95849138    -0.10900
H7          H  0.27084914  0.80728058  0.98181460     0.08700
H8          H  0.25827009  0.89303106  0.04073035     0.06300
H9          H  0.24954250  0.89962378  0.93688838     0.06100
C10         C  0.81203246  0.09755964  0.03886545     0.03200
C11         C  0.81296087  0.11135712  0.00767105    -0.13000
C12         C  0.81110649  0.09175947  0.97992587     0.00700
C13         C  0.80807602  0.05793240  0.98337682    -0.11500
C14         C  0.80705727  0.04342845  0.01452007     0.03100
C15         C  0.80942930  0.06352343  0.04228335    -0.10900
H16         H  0.81555183  0.13748945  0.00495982     0.08700
H17         H  0.80742844  0.04288527  0.96172167     0.06300
H18         H  0.80926762  0.05277052  0.06641981     0.06100
C19         C  0.93571058  0.93320377  0.30597446     0.03200
C20         C  0.97065312  0.93263017  0.30672469    -0.13000
C21         C  0.98905608  0.96144880  0.30856599     0.00700
C22         C  0.97227645  0.99130413  0.30973973    -0.11500
C23         C  0.93735869  0.99298186  0.30804838     0.03100
C24         C  0.91907608  0.96361769  0.30618935    -0.10900
H25         H  0.98371629  0.90958431  0.30502452     0.08700
H26         H  0.98669007  0.01356049  0.31051708     0.06300
H27         H  0.89227363  0.96439868  0.30399372     0.06100
C28         C  0.18390880  0.00577122  0.70770590     0.03200
C29         C  0.20019511  0.97569949  0.70600328    -0.13000
C30         C  0.18218697  0.94699620  0.70183345     0.00700
C31         C  0.14751694  0.94847442  0.69866693    -0.11500
C32         C  0.13088600  0.97845540  0.70011773     0.03100
C33         C  0.14923935  0.00712630  0.70412137    -0.10900
H34         H  0.22682119  0.97444256  0.70965427     0.08700
H35         H  0.13336548  0.92624283  0.69588785     0.06300
H36         H  0.13641060  0.03029607  0.70554061     0.06100
C37         C  0.09659164  0.66534707  0.10652993     0.03200
C38         C  0.09287192  0.65999753  0.07310063    -0.13000
C39         C  0.06129248  0.66038796  0.05919545     0.00700
C40         C  0.03309874  0.66629057  0.07916334    -0.11500
C41         C  0.03664512  0.67216308  0.11274343     0.03100
C42         C  0.06842802  0.67154913  0.12622696    -0.10900
H43         H  0.11475021  0.65607573  0.05769820     0.08700
H44         H  0.00869410  0.66754059  0.06844952     0.06300
H45         H  0.07129285  0.67653287  0.15197116     0.06100
C46         C  0.02600681  0.28355630  0.88267839     0.03200
C47         C  0.02646357  0.28509092  0.91682925    -0.13000
C48         C  0.05671926  0.28544530  0.93321093     0.00700
C49         C  0.08673773  0.28516841  0.91534699    -0.11500
C50         C  0.08666930  0.28392913  0.88128473     0.03100
C51         C  0.05635363  0.28376953  0.86492765    -0.10900
H52         H  0.00329775  0.28417916  0.93080566     0.08700
H53         H  0.11015931  0.28400195  0.92798445     0.06300
H54         H  0.05645158  0.28212184  0.83855935     0.06100
C55         C  0.81446185  0.84684206  0.03451264     0.03200
C56         C  0.81822182  0.83516117  0.00259992    -0.13000
C57         C  0.81896381  0.85668670  0.97614403     0.00700
C58         C  0.81680432  0.89020567  0.98176747    -0.11500
C59         C  0.81336273  0.90246454  0.01361172     0.03100
C60         C  0.81210285  0.88057936  0.04009379    -0.10900
H61         H  0.81992306  0.80917414  0.99832161     0.08700
H62         H  0.81756676  0.90681879  0.96121028     0.06300
H63         H  0.80913795  0.88966322  0.06476918     0.06100
C64         C  0.25862692  0.09291313  0.96948478     0.03200
C65         C  0.26149897  0.10767224  0.00023126    -0.13000
C66         C  0.25874560  0.08911420  0.02894659     0.00700
C67         C  0.25252377  0.05568240  0.02669226    -0.11500
C68         C  0.24945133  0.04062996  0.99626411     0.03100
C69         C  0.25200995  0.05940768  0.96771773    -0.10900
H70         H  0.26730129  0.13335833  0.00172730     0.08700
H71         H  0.25125369  0.04104152  0.04869519     0.06300
H72         H  0.25107658  0.04760078  0.94413490     0.06100
C73         C  0.93381169  0.95200513  0.71143837     0.03200
C74         C  0.96842928  0.95108570  0.70641338    -0.13000
C75         C  0.98686539  0.98021697  0.70488079     0.00700
C76         C  0.97008064  0.01016361  0.70704639    -0.11500
C77         C  0.93545847  0.01088927  0.71160689     0.03100
C78         C  0.91750595  0.98190785  0.71368277    -0.10900
H79         H  0.98110325  0.92782459  0.70516123     0.08700
H80         H  0.98401838  0.03273673  0.70684506     0.06300
H81         H  0.89085524  0.98261938  0.71841400     0.06100
C82         C  0.18478756  0.99183098  0.29041785     0.03200
C83         C  0.15017437  0.99044541  0.29594195    -0.13000
C84         C  0.13316845  0.96062526  0.29463895     0.00700
C85         C  0.15139021  0.93185722  0.28900073    -0.11500
C86         C  0.18612541  0.93292796  0.28460108     0.03100
C87         C  0.20257207  0.96288520  0.28535231    -0.10900
H88         H  0.13628649  0.01270573  0.30016219     0.08700
H89         H  0.13859538  0.90869495  0.28791589     0.06300
H90         H  0.22916854  0.96375763  0.28041864     0.06100
C91         C  0.02552833  0.66317548  0.86926697     0.03200
C92         C  0.05554509  0.66380538  0.85088574    -0.13000
C93         C  0.08620128  0.65865929  0.86602625     0.00700
C94         C  0.08673815  0.65281441  0.89963600    -0.11500
C95         C  0.05715419  0.65327000  0.91840190     0.03100
C96         C  0.02658080  0.65733244  0.90296330    -0.10900
H97         H  0.05518716  0.66969573  0.82513258     0.08700
H98         H  0.11044572  0.65051930  0.91160781     0.06300
H99         H  0.00381954  0.65854991  0.91755139     0.06100
C100        C  0.10435925  0.26119010  0.11772251     0.03200
C101        C  0.09968255  0.26924538  0.08501247    -0.13000
C102        C  0.06760535  0.26941701  0.07220486     0.00700
C103        C  0.04034379  0.26102206  0.09240939    -0.11500
C104        C  0.04496710  0.25261366  0.12519357     0.03100
C105        C  0.07706624  0.25305351  0.13782484    -0.10900
H106        H  0.12110417  0.27432395  0.06935035     0.08700
H107        H  0.01552297  0.26072048  0.08252974     0.06300
H108        H  0.08088887  0.24676586  0.16315660     0.06100
C109        C  0.43551136  0.50581208  0.78450040     0.03200
C110        C  0.46994187  0.50560175  0.78933988    -0.13000
C111        C  0.48691469  0.47596371  0.79331239     0.00700
C112        C  0.46905943  0.44663287  0.79210191    -0.11500
C113        C  0.43467442  0.44683344  0.78676238     0.03100
C114        C  0.41802028  0.47652116  0.78352284    -0.10900
H115        H  0.48358826  0.52833266  0.78891643     0.08700
H116        H  0.48203921  0.42365784  0.79458311     0.06300
H117        H  0.39158331  0.47681994  0.77868462     0.06100
C118        C  0.44248103  0.49169082  0.19967470     0.03200
C119        C  0.47739956  0.49141785  0.19750456    -0.13000
C120        C  0.49492099  0.46185528  0.19823620     0.00700
C121        C  0.47725540  0.43263451  0.20167353    -0.11500
C122        C  0.44241237  0.43278873  0.20333814     0.03100
C123        C  0.42511145  0.46227293  0.20190462    -0.10900
H124        H  0.49090821  0.51420779  0.19610105     0.08700
H125        H  0.49059176  0.40975162  0.20312401     0.06300
H126        H  0.39819448  0.46241897  0.20439400     0.06100
C127        C  0.36232152  0.34636558  0.52289112     0.03200
C128        C  0.36615370  0.38034390  0.52293415    -0.13000
C129        C  0.36912897  0.39774314  0.49356507     0.00700
C130        C  0.36942432  0.38079156  0.46397580    -0.11500
C131        C  0.36646089  0.34692341  0.46369534     0.03100
C132        C  0.36359747  0.32968273  0.49305292    -0.10900
H133        H  0.36543893  0.39346995  0.54582626     0.08700
H134        H  0.37025862  0.39403475  0.44109317     0.06300
H135        H  0.36100519  0.30345498  0.49246476     0.06100
Zr136      Zr  0.25683975  0.19552285  0.77558888     2.17500
O137        O  0.19788377  0.18232039  0.77131356    -0.51300
O138        O  0.26234068  0.16918711  0.82841637    -0.74500
O139        O  0.24771893  0.14066495  0.75585928    -0.81300
O140        O  0.23292231  0.28088788  0.80690219    -0.83000
O141        O  0.28956538  0.12586209  0.72111913    -0.78700
O142        O  0.21560379  0.22846112  0.80428934    -0.90300
O143        O  0.31512648  0.17587672  0.84529957    -0.76300
O144        O  0.31121934  0.17241230  0.77364093    -0.85800
O145        O  0.29018519  0.23113090  0.80666645    -0.85400
O146        O  0.27204527  0.19334234  0.71869829    -0.72200
O147        O  0.25291900  0.24744917  0.74932831    -0.84300
Zr148      Zr  0.35809589  0.25775756  0.72206871     2.26400
Zr149      Zr  0.32744349  0.17147200  0.71699145     2.06300
Zr150      Zr  0.28749468  0.28279276  0.78007266     2.10000
Zr151      Zr  0.34452473  0.20836128  0.80453943     1.78800
O152        O  0.25540547  0.33049312  0.76456874    -0.93100
O153        O  0.38001036  0.16102994  0.81235207    -0.40900
O154        O  0.34240498  0.26044123  0.77863799    -0.77600
O155        O  0.36232742  0.20593525  0.74860438    -0.96300
O156        O  0.32457649  0.22300420  0.69045738    -0.89600
O157        O  0.30393220  0.28140278  0.72365903    -0.92400
C158        C  0.28542941  0.16485777  0.84917776     1.01300
C159        C  0.21155749  0.25830549  0.81284508     1.14300
C160        C  0.26179532  0.12048595  0.73605767     1.05000
O161        O  0.35745935  0.12120932  0.72760590    -0.94600
O162        O  0.38238312  0.17285750  0.69055210    -0.90300
O163        O  0.39873804  0.22548663  0.69188350    -0.83500
C164        C  0.40344782  0.19558551  0.68409651     1.11700
O165        O  0.21165632  0.23298241  0.68422121    -0.96500
Zr166      Zr  0.27008156  0.24556496  0.69315863     1.88900
O167        O  0.35309462  0.28300172  0.66897948    -0.73200
O168        O  0.31748815  0.15829225  0.66010832    -0.52500
O169        O  0.26192397  0.21393459  0.64372802    -0.97100
O170        O  0.23779434  0.29514392  0.68540848    -0.54400
O171        O  0.30110720  0.27385254  0.65067770    -0.73700
C172        C  0.33071259  0.28516166  0.64724497     0.98600
O173        O  0.41505764  0.27695008  0.72832480    -0.62500
O174        O  0.29490621  0.30025307  0.83618469    -0.57300
O175        O  0.36978515  0.31111770  0.74299412    -0.94000
O176        O  0.32794195  0.32684155  0.77727731    -0.92400
O177        O  0.35016932  0.23866290  0.85512757    -0.92800
O178        O  0.40233081  0.22327711  0.81322301    -0.91600
C179        C  0.35616899  0.33147237  0.76279466     1.17500
H180        H  0.28195543  0.23283719  0.82889409     0.33400
H181        H  0.38502661  0.19824751  0.74813194     0.44300
H182        H  0.30422126  0.30306115  0.71446607     0.37800
H183        H  0.25699840  0.17940923  0.70707832     0.34300
H184        H  0.38162532  0.15874795  0.83630856     0.26100
H185        H  0.33336495  0.14055013  0.65483780     0.32000
H186        H  0.28443278  0.21158038  0.63375190     0.37900
H187        H  0.35467047  0.22192999  0.87186512     0.32400
H188        H  0.31855500  0.30678016  0.83746441     0.31300
H189        H  0.26650452  0.34913079  0.77505947     0.32900
H190        H  0.25441198  0.31267119  0.68215959     0.31900
H191        H  0.40304033  0.24715454  0.80999716     0.35900
H192        H  0.42776224  0.25805042  0.73647062     0.28600
H193        H  0.19444698  0.16187974  0.78370584     0.32900
H194        H  0.20611116  0.24350332  0.66328155     0.35700
H195        H  0.28219889  0.32082680  0.83805116     0.28300
H196        H  0.42388011  0.28097632  0.70596661     0.41200
H197        H  0.37627316  0.12785235  0.74132272     0.31300
H198        H  0.36631664  0.14228270  0.80561615     0.38900
H199        H  0.22755336  0.29964393  0.70709605     0.30700
H200        H  0.29532697  0.14779536  0.66006529     0.30800
H201        H  0.19472705  0.17635540  0.74819175     0.31000
C202        C  0.80786096  0.34814846  0.47466378     0.03200
C203        C  0.80427221  0.33526024  0.50610310    -0.13000
C204        C  0.80085475  0.35567803  0.53310750     0.00700
C205        C  0.80014379  0.38943869  0.52866381    -0.11500
C206        C  0.80337923  0.40299592  0.49732078     0.03100
C207        C  0.80759735  0.38219623  0.47019474    -0.10900
H208        H  0.80481894  0.30910412  0.50963883     0.08700
H209        H  0.79715677  0.40521485  0.54968824     0.06300
H210        H  0.80973779  0.39233666  0.44584903     0.06100
C211        C  0.59328711  0.17073821  0.62495339     0.03200
C212        C  0.56233120  0.17072312  0.64138550    -0.13000
C213        C  0.53273735  0.16911101  0.62371336     0.00700
C214        C  0.53444801  0.16664262  0.58962791    -0.11500
C215        C  0.56537390  0.16708090  0.57319041     0.03100
C216        C  0.59466673  0.16895487  0.59093353    -0.10900
H217        H  0.56121745  0.17371056  0.66763876     0.08700
H218        H  0.51173577  0.16682664  0.57579147     0.06300
H219        H  0.61851440  0.17046291  0.57817242     0.06100
Zr220      Zr  0.85294977  0.19431210  0.78959781     2.17500
O221        O  0.90597277  0.16644304  0.79680074    -0.51300
O222        O  0.83894134  0.16715533  0.84082509    -0.74500
O223        O  0.89357940  0.22726314  0.81752425    -0.81300
O224        O  0.83245395  0.13027866  0.72488199    -0.83000
O225        O  0.87694422  0.27994869  0.81982055    -0.78700
O226        O  0.86911196  0.14362986  0.76416322    -0.90300
O227        O  0.78440683  0.17621914  0.85256082    -0.76300
O228        O  0.81669606  0.23085238  0.81780879    -0.85800
O229        O  0.79856079  0.17257294  0.78323472    -0.85400
O230        O  0.86190453  0.24561634  0.76254376    -0.72200
O231        O  0.84448175  0.19221232  0.73198551    -0.84300
Zr232      Zr  0.76076300  0.26028818  0.72697758     2.26400
Zr233      Zr  0.82466539  0.28205607  0.79066261     2.06300
Zr234      Zr  0.78946559  0.17172829  0.72579803     2.10000
Zr235      Zr  0.76205762  0.20991316  0.81005413     1.78800
O236        O  0.79654520  0.14893062  0.67131057    -0.93100
O237        O  0.74966726  0.23957923  0.86024183    -0.40900
O238        O  0.75188135  0.20854542  0.75284372    -0.77600
O239        O  0.76906523  0.26195845  0.78482279    -0.96300
O240        O  0.81552306  0.28114046  0.73311864    -0.89600
O241        O  0.79645262  0.22307991  0.69880935    -0.92400
C242        C  0.81272165  0.16358624  0.85880367     1.01300
C243        C  0.85861030  0.12505353  0.74154978     1.14300
C244        C  0.89788440  0.25710002  0.82556255     1.05000
O245        O  0.81040220  0.29968973  0.84574114    -0.94600
O246        O  0.78767043  0.32849886  0.78424623    -0.90300
O247        O  0.74961925  0.31521509  0.74615014    -0.83500
C248        C  0.76193472  0.33470041  0.76718056     1.11700
O249        O  0.90946872  0.22722218  0.70065434    -0.96500
Zr250      Zr  0.85121752  0.24347622  0.70554146     1.88900
O251        O  0.77416516  0.28496804  0.67430990    -0.73200
O252        O  0.85971868  0.32895907  0.77829777    -0.52500
O253        O  0.89058853  0.28807901  0.69841505    -0.97100
O254        O  0.85867604  0.21023432  0.65669725    -0.54400
O255        O  0.82956465  0.27887377  0.66417379    -0.73700
C256        C  0.80071351  0.28961705  0.65700214     0.98600
O257        O  0.70533210  0.28451883  0.72442866    -0.62500
O258        O  0.76164973  0.12306967  0.74640296    -0.57300
O259        O  0.72029985  0.22623573  0.69993275    -0.94000
O260        O  0.73669130  0.17350466  0.69820098    -0.92400
O261        O  0.72440528  0.16346542  0.81236327    -0.92800
O262        O  0.70338478  0.22429644  0.81535613    -0.91600
C263        C  0.71591374  0.19631317  0.69211395     1.17500
H264        H  0.79684045  0.15092797  0.79233245     0.33400
H265        H  0.75316956  0.27634011  0.79531409     0.44300
H266        H  0.79066019  0.22135846  0.67613159     0.37800
H267        H  0.88469595  0.25278710  0.76391606     0.34300
H268        H  0.73763156  0.22374853  0.87436111     0.26100
H269        H  0.85066148  0.33825876  0.75803602     0.32000
H270        H  0.87798855  0.30778313  0.70501721     0.37900
H271        H  0.73827224  0.14477264  0.81901399     0.32400
H272        H  0.73841223  0.12995964  0.75094617     0.31300
H273        H  0.78335249  0.12859097  0.67174674     0.32900
H274        H  0.83990682  0.21587988  0.64247696     0.31900
H275        H  0.69872755  0.23701054  0.79543172     0.35900
H276        H  0.69950767  0.28478212  0.70107676     0.28600
H277        H  0.91064908  0.16749402  0.82038407     0.32900
H278        H  0.91578632  0.23027916  0.67739415     0.35700
H279        H  0.76035873  0.10849967  0.72727667     0.28300
H280        H  0.68991997  0.26863146  0.73482465     0.41200
H281        H  0.82691753  0.31677018  0.85057454     0.31300
H282        H  0.77148650  0.24233584  0.87068331     0.38900
H283        H  0.85396220  0.18771823  0.66404098     0.30700
H284        H  0.85397291  0.34506769  0.79544204     0.30800
H285        H  0.92304109  0.18038970  0.78606987     0.31000
C286        C  0.35829906  0.58908185  0.51654699     0.03200
C287        C  0.36577225  0.55585876  0.51660973    -0.13000
C288        C  0.36699163  0.53816189  0.48757428     0.00700
C289        C  0.36216139  0.55417542  0.45782838    -0.11500
C290        C  0.35372098  0.58744690  0.45711925     0.03100
C291        C  0.35197351  0.60473744  0.48679980    -0.10900
H292        H  0.36961860  0.54338810  0.53955229     0.08700
H293        H  0.36391478  0.54036314  0.43540589     0.06300
H294        H  0.34445966  0.63005358  0.48695694     0.06100
Zr295      Zr  0.35894517  0.69200778  0.70949569     2.17500
O296        O  0.41824572  0.68033388  0.71411232    -0.51300
O297        O  0.35654975  0.66297763  0.65796075    -0.74500
O298        O  0.37037409  0.63900387  0.73327035    -0.81300
O299        O  0.37780448  0.77558421  0.67074557    -0.83000
O300        O  0.33177836  0.62700954  0.77275522    -0.78700
O301        O  0.39916850  0.72526826  0.67971006    -0.90300
O302        O  0.30275586  0.66393132  0.64186091    -0.76300
O303        O  0.30619138  0.66582809  0.71420483    -0.85800
O304        O  0.32307246  0.72198802  0.67506060    -0.85400
O305        O  0.34353577  0.69448043  0.76645937    -0.72200
O306        O  0.35940921  0.74655366  0.73013295    -0.84300
Zr307      Zr  0.25355331  0.75317458  0.75771815     2.26400
Zr308      Zr  0.28954653  0.66942729  0.77061939     2.06300
Zr309      Zr  0.32223109  0.77612727  0.69620415     2.10000
Zr310      Zr  0.27028979  0.69615957  0.68031865     1.78800
O311        O  0.34972862  0.82802539  0.70504160    -0.93100
O312        O  0.24293689  0.64329869  0.67853237    -0.40900
O313        O  0.26874820  0.75073893  0.70085678    -0.77600
O314        O  0.25265132  0.69884717  0.73627977    -0.96300
O315        O  0.28962289  0.72344697  0.79166620    -0.89600
O316        O  0.30624306  0.77933826  0.75266493    -0.92400
C317        C  0.33336236  0.65569661  0.63821677     1.01300
C318        C  0.40114490  0.75421806  0.66801322     1.14300
C319        C  0.35866511  0.62094005  0.75635939     1.05000
O320        O  0.26336521  0.61738770  0.75930435    -0.94600
O321        O  0.23436240  0.67109811  0.79759567    -0.90300
O322        O  0.21359456  0.72172415  0.78946069    -0.83500
C323        C  0.21141371  0.69285847  0.80119515     1.11700
O324        O  0.39997228  0.73530212  0.79786011    -0.96500
Zr325      Zr  0.34239349  0.74913583  0.78629566     1.88900
O326        O  0.25619989  0.77985293  0.81106461    -0.73200
O327        O  0.29574129  0.65971338  0.82865571    -0.52500
O328        O  0.34907510  0.72906678  0.84169846    -0.97100
O329        O  0.37456066  0.79941348  0.78564761    -0.54400
O330        O  0.31076755  0.78235608  0.82452958    -0.73700
C331        C  0.27984710  0.78832518  0.83000029     0.98600
O332        O  0.19658826  0.76811906  0.74456386    -0.62500
O333        O  0.31136931  0.78649757  0.63889346    -0.57300
O334        O  0.24281951  0.80686152  0.73690894    -0.94000
O335        O  0.28105224  0.81967305  0.69759910    -0.92400
O336        O  0.25850005  0.72167991  0.62818309    -0.92800
O337        O  0.21122728  0.70140342  0.66879272    -0.91600
C338        C  0.25487977  0.82599330  0.71496810     1.17500
H339        H  0.33117294  0.72222364  0.65274966     0.33400
H340        H  0.23054011  0.68977808  0.73776537     0.44300
H341        H  0.30496772  0.80170539  0.75974209     0.37800
H342        H  0.35945032  0.68274183  0.77932427     0.34300
H343        H  0.23776805  0.63996881  0.65526316     0.26100
H344        H  0.29142428  0.63616217  0.83148758     0.32000
H345        H  0.32651910  0.72207577  0.84888443     0.37900
H346        H  0.28029614  0.72297812  0.61657828     0.32400
H347        H  0.28699245  0.78389743  0.63701907     0.31300
H348        H  0.35007658  0.83874629  0.68341012     0.32900
H349        H  0.35784173  0.81708825  0.78700022     0.31900
H350        H  0.19932258  0.69465365  0.68905211     0.35900
H351        H  0.18529372  0.74744505  0.73923239     0.28600
H352        H  0.42218085  0.65986099  0.70190684     0.32900
H353        H  0.40676072  0.75059389  0.81513041     0.35700
H354        H  0.31522874  0.81011072  0.63599307     0.28300
H355        H  0.18607726  0.77542181  0.76531079     0.41200
H356        H  0.24350420  0.62304231  0.74656091     0.31300
H357        H  0.26075643  0.62734830  0.68295653     0.38900
H358        H  0.38392270  0.80093532  0.76318340     0.30700
H359        H  0.31985553  0.66234252  0.83230071     0.30800
H360        H  0.42172354  0.67472024  0.73728705     0.31000
C361        C  0.68497022  0.45144922  0.78863027     0.03200
C362        C  0.70028985  0.48181318  0.78580458    -0.13000
C363        C  0.68131700  0.51035747  0.78747926     0.00700
C364        C  0.64664899  0.50829206  0.79212525    -0.11500
C365        C  0.63096712  0.47778967  0.79454579     0.03100
C366        C  0.65047776  0.44940788  0.79357600    -0.10900
H367        H  0.72691803  0.48317492  0.78117044     0.08700
H368        H  0.63182584  0.53033114  0.79274443     0.06300
H369        H  0.63873842  0.42571976  0.79533802     0.06100
C370        C  0.59023371  0.79167811  0.61329482     0.03200
C371        C  0.55830038  0.79048055  0.62851260    -0.13000
C372        C  0.52934685  0.78901858  0.60980260     0.00700
C373        C  0.53216786  0.78992160  0.57579622    -0.11500
C374        C  0.56342698  0.79122189  0.56019086     0.03100
C375        C  0.59230082  0.79201377  0.57894097    -0.10900
H376        H  0.55592068  0.78918424  0.65483083     0.08700
H377        H  0.50995135  0.78774140  0.56136618     0.06300
H378        H  0.61636290  0.79129253  0.56660407     0.06100
C379        C  0.79635780  0.59815873  0.47380743     0.03200
C380        C  0.79703280  0.56402931  0.47037355    -0.13000
C381        C  0.79549378  0.54381318  0.49813221     0.00700
C382        C  0.79342276  0.55809679  0.52924494    -0.11500
C383        C  0.79283857  0.59205622  0.53253166     0.03100
C384        C  0.79447428  0.61182841  0.50487786    -0.10900
H385        H  0.79844796  0.55329730  0.44626900     0.08700
H386        H  0.79250339  0.54285646  0.55083177     0.06300
H387        H  0.79412560  0.63808530  0.50757730     0.06100
Zr388      Zr  0.75782037  0.70104431  0.71862762     2.17500
O389        O  0.70766039  0.67048001  0.70605387    -0.51300
O390        O  0.77082918  0.67439974  0.66706846    -0.74500
O391        O  0.71573609  0.73530567  0.69307400    -0.81300
O392        O  0.78326333  0.63344066  0.77750148    -0.83000
O393        O  0.73531729  0.78677011  0.68686679    -0.78700
O394        O  0.74088254  0.65145618  0.74668831    -0.90300
O395        O  0.82577421  0.67985129  0.65506344    -0.76300
O396        O  0.79413738  0.73684193  0.68942289    -0.85800
O397        O  0.81223361  0.67853987  0.72380201    -0.85400
O398        O  0.75023074  0.75261116  0.74554041    -0.72200
O399        O  0.76818509  0.69881797  0.77605692    -0.84300
Zr400      Zr  0.85398872  0.76470153  0.77880551     2.26400
Zr401      Zr  0.78778268  0.78822895  0.71658434     2.06300
Zr402      Zr  0.82319001  0.67743549  0.78096755     2.10000
Zr403      Zr  0.84868639  0.71496426  0.69566025     1.78800
O404        O  0.81050402  0.66261696  0.83741441    -0.93100
O405        O  0.85741776  0.74388711  0.64428841    -0.40900
O406        O  0.86088793  0.71299991  0.75246726    -0.77600
O407        O  0.84306597  0.76658472  0.72129401    -0.96300
O408        O  0.79955703  0.78710553  0.77371350    -0.89600
O409        O  0.81771797  0.72875371  0.80791471    -0.92400
C410        C  0.79675457  0.66883458  0.64926735     1.01300
C411        C  0.75437116  0.63017559  0.76519174     1.14300
C412        C  0.71274331  0.76488694  0.68323108     1.05000
O413        O  0.79816991  0.81049564  0.66237121    -0.94600
O414        O  0.82828653  0.83220808  0.71930332    -0.90300
O415        O  0.86573781  0.81896804  0.75823161    -0.83500
C416        C  0.85426808  0.83788984  0.73618772     1.11700
O417        O  0.70476162  0.73627690  0.80922984    -0.96500
Zr418      Zr  0.76330931  0.75075633  0.80210757     1.88900
O419        O  0.84314546  0.78999772  0.83179145    -0.73200
O420        O  0.75539182  0.83509594  0.73496289    -0.52500
O421        O  0.73183767  0.80145866  0.80459850    -0.97100
O422        O  0.74931526  0.72237321  0.85281121    -0.54400
O423        O  0.78832142  0.78303792  0.84425467    -0.73700
C424        C  0.81736743  0.79404487  0.85038206     0.98600
O425        O  0.90998289  0.78772326  0.77745499    -0.62500
O426        O  0.85378595  0.62724145  0.76997632    -0.57300
O427        O  0.89489457  0.73018517  0.80580027    -0.94000
O428        O  0.87779054  0.67768669  0.80523402    -0.92400
O429        O  0.88678106  0.66890725  0.69248208    -0.92800
O430        O  0.90644142  0.73133063  0.68665002    -0.91600
C431        C  0.89901667  0.69978604  0.81219867     1.17500
H432        H  0.81352637  0.65682246  0.71493719     0.33400
H433        H  0.85903826  0.78031499  0.71005459     0.44300
H434        H  0.82377014  0.72698282  0.83057412     0.37800
H435        H  0.72757059  0.76029000  0.74475139     0.34300
H436        H  0.87241804  0.72966297  0.63119706     0.26100
H437        H  0.76869618  0.84507192  0.75237976     0.32000
H438        H  0.71519496  0.79979052  0.78720732     0.37900
H439        H  0.88927034  0.66416827  0.66888766     0.32400
H440        H  0.84861489  0.61304593  0.78893322     0.31300
H441        H  0.83061024  0.66831935  0.84973188     0.32900
H442        H  0.76893755  0.72508404  0.86675931     0.31900
H443        H  0.91041557  0.74849087  0.70303438     0.35900
H444        H  0.91761443  0.78759413  0.80026443     0.28600
H445        H  0.70196492  0.67612825  0.68336642     0.32900
H446        H  0.69612723  0.75030413  0.82710045     0.35700
H447        H  0.84238978  0.61686259  0.75151369     0.28300
H448        H  0.92410205  0.77148602  0.76590637     0.41200
H449        H  0.81618299  0.79672957  0.65307048     0.31300
H450        H  0.83581026  0.74250916  0.63318877     0.38900
H451        H  0.74949962  0.69902210  0.84690185     0.30700
H452        H  0.75698468  0.85073219  0.71661222     0.30800
H453        H  0.68970624  0.68004351  0.71979676     0.31000
C454        C  0.52710484  0.18527568  0.38768668     0.03200
C455        C  0.55354684  0.19525572  0.36726949    -0.13000
C456        C  0.58517017  0.20103731  0.37998383     0.00700
C457        C  0.59007836  0.19677053  0.41363604    -0.11500
C458        C  0.56363093  0.18654859  0.43417318     0.03100
C459        C  0.53238403  0.18072491  0.42090409    -0.10900
H460        H  0.54947363  0.19863919  0.34143495     0.08700
H461        H  0.61461172  0.20019386  0.42356730     0.06300
H462        H  0.51195032  0.17267854  0.43657776     0.06100
Zr463      Zr  0.77976110  0.25928590  0.29081589     2.17500
O464        O  0.75539496  0.30344110  0.32321621    -0.51300
O465        O  0.72325178  0.24195366  0.30500965    -0.74500
O466        O  0.76111077  0.30512035  0.25753816    -0.81300
O467        O  0.83181767  0.23138950  0.36495385    -0.83000
O468        O  0.76948653  0.29351466  0.20386443    -0.78700
O469        O  0.79723052  0.27059405  0.34560683    -0.90300
O470        O  0.71543616  0.19062057  0.28716180    -0.76300
O471        O  0.76224386  0.22899271  0.24498153    -0.85800
O472        O  0.78373306  0.20369186  0.30753606    -0.85400
O473        O  0.81866844  0.27428777  0.24801001    -0.72200
O474        O  0.83661055  0.24924122  0.30489097    -0.84300
Zr475      Zr  0.86197028  0.17821710  0.22939167     2.26400
Zr476      Zr  0.80134117  0.24269262  0.20189217     2.06300
Zr477      Zr  0.84113701  0.19314497  0.31966199     2.10000
Zr478      Zr  0.76700631  0.17352096  0.26128463     1.78800
O479        O  0.89249007  0.19545900  0.35013324    -0.93100
O480        O  0.72762256  0.16717650  0.21733839    -0.40900
O481        O  0.82417688  0.16314088  0.27292439    -0.77600
O482        O  0.80407874  0.18622620  0.21719822    -0.96300
O483        O  0.85858093  0.23412243  0.21490539    -0.89600
O484        O  0.87966780  0.20704605  0.27635766    -0.92400
C485        C  0.70531335  0.21639154  0.30174664     1.01300
C486        C  0.81499143  0.25798129  0.36790131     1.14300
C487        C  0.75912816  0.31222135  0.22708481     1.05000
O488        O  0.75278462  0.24119652  0.16733522    -0.94600
O489        O  0.81420535  0.20758411  0.15467424    -0.90300
O490        O  0.84910884  0.16824870  0.17257697    -0.83500
C491        C  0.83150183  0.18141277  0.15036944     1.11700
O492        O  0.87811624  0.31177025  0.29612066    -0.96500
Zr493      Zr  0.87496436  0.26311676  0.26232627     1.88900
O494        O  0.91523057  0.19946902  0.20812905    -0.73200
O495        O  0.83208471  0.27749991  0.16384317    -0.52500
O496        O  0.88241364  0.31395973  0.23253578    -0.97100
O497        O  0.92362185  0.26272586  0.29712177    -0.54400
O498        O  0.92018580  0.25172665  0.22504803    -0.73700
C499        C  0.92992574  0.22726395  0.20818453     0.98600
O500        O  0.88465117  0.12662351  0.20972154    -0.62500
O501        O  0.81256015  0.15947009  0.36033865    -0.57300
O502        O  0.88231187  0.13338993  0.26210183    -0.94000
O503        O  0.86856591  0.13963989  0.31567436    -0.92400
O504        O  0.75582851  0.13079347  0.30125443    -0.92800
O505        O  0.76431583  0.11842847  0.23969066    -0.91600
C506        C  0.88183700  0.12349548  0.29180369     1.17500
H507        H  0.76960881  0.19935313  0.32651432     0.33400
H508        H  0.79624307  0.17202716  0.20032103     0.44300
H509        H  0.90236256  0.20086783  0.28171857     0.37800
H510        H  0.81855534  0.29727381  0.24330929     0.34300
H511        H  0.70962666  0.15338141  0.22660931     0.26100
H512        H  0.81488404  0.29103265  0.15342222     0.32000
H513        H  0.90609713  0.31972941  0.23541726     0.37900
H514        H  0.74430049  0.14177421  0.31974757     0.32400
H515        H  0.81096619  0.13770842  0.35014724     0.31300
H516        H  0.88646113  0.18676867  0.37198315     0.32900
H517        H  0.93600838  0.28277940  0.29124613     0.31900
H518        H  0.78541328  0.11563666  0.22711799     0.35900
H519        H  0.86659377  0.11559831  0.19793096     0.28600
H520        H  0.73278161  0.30699529  0.31471760     0.32900
H521        H  0.85544148  0.31448374  0.30561789     0.35700
H522        H  0.82887721  0.15664321  0.37789121     0.28300
H523        H  0.90147287  0.13247155  0.19279868     0.41200
H524        H  0.74916721  0.21784670  0.16270110     0.31300
H525        H  0.71729473  0.18888762  0.21483465     0.38900
H526        H  0.93807281  0.24496702  0.28874608     0.30700
H527        H  0.84421571  0.29282687  0.17790644     0.30800
H528        H  0.76801864  0.32328359  0.31716665     0.31000
C529        C  0.52150811  0.76564512  0.37411852     0.03200
C530        C  0.54935853  0.75771900  0.35475095    -0.13000
C531        C  0.58109983  0.75747046  0.36812759     0.00700
C532        C  0.58483877  0.76545712  0.40110561    -0.11500
C533        C  0.55702603  0.77366480  0.42071113     0.03100
C534        C  0.52525104  0.77329134  0.40704637    -0.10900
H535        H  0.54613837  0.75058983  0.32956060     0.08700
H536        H  0.60942755  0.76524087  0.41149987     0.06300
H537        H  0.50333192  0.77774443  0.42221327     0.06100
C538        C  0.69297645  0.43510289  0.19980963     0.03200
C539        C  0.70830770  0.46607396  0.20045537    -0.13000
C540        C  0.68906151  0.49476830  0.19839861     0.00700
C541        C  0.65443605  0.49213934  0.19562411    -0.11500
C542        C  0.63883253  0.46172228  0.19586593     0.03100
C543        C  0.65813083  0.43340876  0.19784806    -0.10900
H544        H  0.73499209  0.46786793  0.20322507     0.08700
H545        H  0.63936404  0.51398893  0.19443115     0.06300
H546        H  0.64578136  0.40999235  0.19878666     0.06100
Zr547      Zr  0.85699922  0.75187741  0.21699601     2.17500
O548        O  0.88909506  0.79152455  0.18501524    -0.51300
O549        O  0.91019539  0.72839694  0.19830043    -0.74500
O550        O  0.87738952  0.79770344  0.24920447    -0.81300
O551        O  0.80038083  0.73000927  0.14453099    -0.83000
O552        O  0.86859316  0.78756638  0.30313188    -0.78700
O553        O  0.83776262  0.76660170  0.16348139    -0.90300
O554        O  0.91200942  0.67535176  0.21312148    -0.76300
O555        O  0.87339772  0.72066930  0.26279644    -0.85800
O556        O  0.84799778  0.69681645  0.20089031    -0.85400
O557        O  0.81973705  0.76905250  0.26064597    -0.72200
O558        O  0.79897408  0.74658869  0.20467660    -0.84300
Zr559      Zr  0.77046116  0.67589655  0.27964502     2.26400
Zr560      Zr  0.83626475  0.73683878  0.30658332     2.06300
Zr561      Zr  0.78998774  0.69128209  0.18942650     2.10000
Zr562      Zr  0.86386396  0.66563069  0.24711930     1.78800
O563        O  0.73797465  0.69782326  0.16062973    -0.93100
O564        O  0.91087457  0.66238749  0.28367538    -0.40900
O565        O  0.80619395  0.65924283  0.23531806    -0.77600
O566        O  0.82869012  0.68064973  0.29197187    -0.96300
O567        O  0.77812245  0.73115241  0.29506914    -0.89600
O568        O  0.75342549  0.70664277  0.23371914    -0.92400
C569        C  0.92381512  0.70010447  0.19802481     1.01300
C570        C  0.81866911  0.75565574  0.14138183     1.14300
C571        C  0.87902814  0.80575108  0.27943652     1.05000
O572        O  0.88764609  0.72582382  0.33500445    -0.94600
O573        O  0.81829538  0.70522498  0.35480379    -0.90300
O574        O  0.78126358  0.66813728  0.33674303    -0.83500
C575        C  0.79878756  0.68064091  0.35923748     1.11700
O576        O  0.76319952  0.81384053  0.22015313    -0.96500
Zr577      Zr  0.76245569  0.76177982  0.24857939     1.88900
O578        O  0.71627414  0.69726476  0.29740932    -0.73200
O579        O  0.81655461  0.77420113  0.34882644    -0.52500
O580        O  0.75625782  0.80741203  0.28605868    -0.97100
O581        O  0.71680439  0.76789514  0.21074386    -0.54400
O582        O  0.71382749  0.74990022  0.28141944    -0.73700
C583        C  0.70172970  0.72507071  0.29624835     0.98600
O584        O  0.74843746  0.62474967  0.30143953    -0.62500
O585        O  0.81413710  0.65736510  0.14631764    -0.57300
O586        O  0.74865496  0.63152520  0.24745880    -0.94000
O587        O  0.75985565  0.63949465  0.19358102    -0.92400
O588        O  0.86864860  0.61822422  0.21180898    -0.92800
O589        O  0.86432793  0.61374912  0.27588716    -0.91600
C590        C  0.74731601  0.62289347  0.21745073     1.17500
H591        H  0.86059703  0.69125180  0.18137802     0.33400
H592        H  0.83529442  0.66626928  0.30928743     0.44300
H593        H  0.73043806  0.70231880  0.22881014     0.37800
H594        H  0.82062199  0.79204531  0.26506339     0.34300
H595        H  0.92500717  0.64464969  0.27473000     0.26100
H596        H  0.83642307  0.77885303  0.36194972     0.32000
H597        H  0.73395015  0.81648754  0.28167646     0.37900
H598        H  0.86558343  0.62685544  0.18952178     0.32400
H599        H  0.80926853  0.63464681  0.15289347     0.31300
H600        H  0.73762150  0.67957157  0.14490827     0.32900
H601        H  0.69940879  0.75243847  0.21831921     0.31900
H602        H  0.84067525  0.60703481  0.27710725     0.35900
H603        H  0.76760693  0.61313577  0.31086137     0.28600
H604        H  0.91057513  0.79422298  0.19611567     0.32900
H605        H  0.78546809  0.81483294  0.20941619     0.35700
H606        H  0.79989124  0.66124538  0.12727716     0.28300
H607        H  0.73386895  0.63057675  0.32028256     0.41200
H608        H  0.89110740  0.70210753  0.33254923     0.31300
H609        H  0.92397600  0.68239755  0.27942309     0.38900
H610        H  0.72540661  0.75853759  0.18999942     0.30700
H611        H  0.81196630  0.79483532  0.33725033     0.30800
H612        H  0.87753472  0.81263753  0.18771693     0.31000
Zr613      Zr  0.26475384  0.74560597  0.20579303     2.17500
O614        O  0.20495695  0.75596179  0.20833989    -0.51300
O615        O  0.27424032  0.77393484  0.15427459    -0.74500
O616        O  0.25109204  0.79933972  0.22651029    -0.81300
O617        O  0.24409974  0.66137867  0.17193437    -0.83000
O618        O  0.28957857  0.81283414  0.26382761    -0.78700
O619        O  0.22716262  0.71425324  0.17328458    -0.90300
O620        O  0.32812895  0.76803366  0.13820691    -0.76300
O621        O  0.31825924  0.76973675  0.21053826    -0.85800
O622        O  0.30118340  0.71183546  0.17453475    -0.85400
O623        O  0.27485598  0.74517770  0.26329496    -0.72200
O624        O  0.25988798  0.69227879  0.22930065    -0.84300
Zr625      Zr  0.36217563  0.68183802  0.26075409     2.26400
Zr626      Zr  0.32939420  0.76816566  0.26777056     2.06300
Zr627      Zr  0.29767367  0.65880967  0.19851163     2.10000
Zr628      Zr  0.35478070  0.73530005  0.17976393     1.78800
O629        O  0.26729622  0.60906863  0.21171472    -0.93100
O630        O  0.39008191  0.78335856  0.17601683    -0.40900
O631        O  0.35184934  0.68208217  0.20345589    -0.77600
O632        O  0.36763772  0.73500398  0.23667238    -0.96300
O633        O  0.32536003  0.71523045  0.29176791    -0.89600
O634        O  0.30891023  0.65759357  0.25570457    -0.92400
C635        C  0.29845930  0.77851751  0.13383165     1.01300
C636        C  0.22377716  0.68441021  0.16502452     1.14300
C637        C  0.26299084  0.81867798  0.24782886     1.05000
O638        O  0.36366873  0.81581841  0.25635549    -0.94600
O639        O  0.37877490  0.76414719  0.30129325    -0.90300
O640        O  0.39921634  0.71322013  0.29373976    -0.83500
C641        C  0.40025176  0.74159350  0.30646482     1.11700
O642        O  0.21255325  0.70276861  0.29299772    -0.96500
Zr643      Zr  0.27187891  0.69165360  0.28621541     1.88900
O644        O  0.35343396  0.65691373  0.31442563    -0.73200
O645        O  0.31528352  0.78612071  0.32292844    -0.52500
O646        O  0.26007896  0.72049554  0.33704272    -0.97100
O647        O  0.24028734  0.64118747  0.29097320    -0.54400
O648        O  0.29878209  0.66160594  0.32904544    -0.73700
C649        C  0.32869855  0.65262834  0.33432600     0.98600
O650        O  0.41946852  0.66239593  0.25579903    -0.62500
O651        O  0.30839235  0.64200233  0.14226583    -0.57300
O652        O  0.37515241  0.62872068  0.23862440    -0.94000
O653        O  0.33941208  0.61580253  0.19863917    -0.92400
O654        O  0.36483523  0.70511411  0.12940463    -0.92800
O655        O  0.41341242  0.72329434  0.16948976    -0.91600
C656        C  0.36505138  0.60991616  0.21589586     1.17500
H657        H  0.29458460  0.71119717  0.15201757     0.33400
H658        H  0.39010292  0.74299770  0.23883341     0.44300
H659        H  0.30897921  0.63556673  0.26411501     0.37800
H660        H  0.25853608  0.75832767  0.27480385     0.34300
H661        H  0.39263502  0.78768549  0.15234045     0.26100
H662        H  0.32019538  0.80972605  0.32297968     0.32000
H663        H  0.28195324  0.72291803  0.34747175     0.37900
H664        H  0.34485482  0.70874636  0.11613338     0.32400
H665        H  0.29681550  0.65810116  0.12854700     0.31300
H666        H  0.28020560  0.59825752  0.22895397     0.32900
H667        H  0.25703840  0.62388026  0.29428048     0.31900
H668        H  0.41933979  0.70770276  0.18686570     0.35900
H669        H  0.43319488  0.68178891  0.25061327     0.28600
H670        H  0.20128758  0.77565760  0.19498220     0.32900
H671        H  0.20569081  0.69181215  0.31357097     0.35700
H672        H  0.33235487  0.64640144  0.13832745     0.28300
H673        H  0.42585468  0.65585377  0.27804078     0.41200
H674        H  0.38483631  0.80695651  0.24733252     0.31300
H675        H  0.37590462  0.80136496  0.18429235     0.38900
H676        H  0.23193259  0.63724455  0.26878188     0.30700
H677        H  0.29070739  0.78479377  0.32455647     0.30800
H678        H  0.19982906  0.76261514  0.23109124     0.31000
Zr679      Zr  0.36953256  0.24057208  0.27286030     2.17500
O680        O  0.42946173  0.24494398  0.26350803    -0.51300
O681        O  0.36601324  0.27241606  0.32259574    -0.74500
O682        O  0.38335571  0.29400999  0.25216283    -0.81300
O683        O  0.38402579  0.15890169  0.31491141    -0.83000
O684        O  0.34370569  0.30889472  0.21647414    -0.78700
O685        O  0.40329784  0.21086349  0.31008988    -0.90300
O686        O  0.31250869  0.26899855  0.34063207    -0.76300
O687        O  0.31758022  0.26777193  0.26949032    -0.85800
O688        O  0.33214396  0.21049828  0.30685536    -0.85400
O689        O  0.35671723  0.23888728  0.21604753    -0.72200
O690        O  0.37043949  0.18618162  0.25179624    -0.84300
Zr691      Zr  0.26573344  0.18137801  0.22560104     2.26400
Zr692      Zr  0.30342361  0.26493813  0.21327317     2.06300
Zr693      Zr  0.33182907  0.15658366  0.28558875     2.10000
Zr694      Zr  0.28019395  0.23728516  0.30298390     1.78800
O695        O  0.36099416  0.10612563  0.27267013    -0.93100
O696        O  0.25136829  0.28943691  0.30190519    -0.40900
O697        O  0.27890077  0.18284866  0.28229444    -0.77600
O698        O  0.26447141  0.23558219  0.24718050    -0.96300
O699        O  0.30317806  0.21101007  0.19139673    -0.89600
O700        O  0.31766702  0.15408659  0.22927842    -0.92400
C701        C  0.34267704  0.27860818  0.34345554     1.01300
C702        C  0.40466277  0.18182274  0.32121235     1.14300
C703        C  0.37061652  0.31413484  0.23204470     1.05000
O704        O  0.27246792  0.31463231  0.22487841    -0.94600
O705        O  0.25134737  0.26404136  0.18425398    -0.90300
O706        O  0.22915069  0.21384536  0.19296292    -0.83500
C707        C  0.22861176  0.24250874  0.18066937     1.11700
O708        O  0.41510673  0.19014857  0.18552811    -0.96500
Zr709      Zr  0.35536610  0.18421461  0.19559835     1.88900
O710        O  0.26927592  0.15447361  0.17295476    -0.73200
O711        O  0.31598879  0.27998894  0.15689943    -0.52500
O712        O  0.36816720  0.21032391  0.14344705    -0.97100
O713        O  0.38354127  0.13160695  0.19312888    -0.54400
O714        O  0.32343805  0.15418942  0.15590459    -0.73700
C715        C  0.29256772  0.14733649  0.15234272     0.98600
O716        O  0.20773185  0.16649241  0.23589059    -0.62500
O717        O  0.32090734  0.14254039  0.34255338    -0.57300
O718        O  0.25093109  0.12873316  0.24741425    -0.94000
O719        O  0.28820733  0.11546631  0.28593546    -0.92400
O720        O  0.26892689  0.21664633  0.35780249    -0.92800
O721        O  0.22171157  0.22784187  0.31652615    -0.91600
C722        C  0.26168626  0.10994499  0.26986137     1.17500
H723        H  0.33919188  0.21018420  0.32921266     0.33400
H724        H  0.24248460  0.24489221  0.24580990     0.44300
H725        H  0.31575879  0.13187482  0.22209006     0.37800
H726        H  0.37312673  0.25097114  0.20352804     0.34300
H727        H  0.24019543  0.29118051  0.32356729     0.26100
H728        H  0.31597629  0.30407995  0.15674428     0.32000
H729        H  0.37064617  0.19223307  0.12765769     0.37900
H730        H  0.26251666  0.23605369  0.37078773     0.32400
H731        H  0.29658949  0.13889871  0.34439405     0.31300
H732        H  0.36109596  0.09390641  0.29348379     0.32900
H733        H  0.36614923  0.11513610  0.19778946     0.31900
H734        H  0.21325094  0.21526034  0.29787181     0.35900
H735        H  0.19639016  0.18693514  0.24240729     0.28600
H736        H  0.43647929  0.26389241  0.27657269     0.32900
H737        H  0.42022744  0.17730413  0.16563142     0.35700
H738        H  0.33092772  0.12073571  0.34533394     0.28300
H739        H  0.19869608  0.16104508  0.21428282     0.41200
H740        H  0.27797306  0.32927258  0.20635566     0.31300
H741        H  0.26929772  0.30593028  0.30241147     0.38900
H742        H  0.39773170  0.13117365  0.21259235     0.30700
H743        H  0.33961561  0.27388549  0.15335665     0.30800
H744        H  0.43226108  0.25196173  0.24051548     0.31000
C745        C  0.70409078  0.52779577  0.20187385    -0.00100
C746        C  0.69057106  0.54895030  0.22556944    -0.12000
C747        C  0.70326069  0.58035123  0.22982721     0.02100
C748        C  0.73074781  0.59120411  0.21065196    -0.00200
C749        C  0.74350470  0.57055493  0.18604556    -0.11900
C750        C  0.73025129  0.53921649  0.18138290     0.02000
H751        H  0.66985785  0.54088526  0.24089727     0.15000
H752        H  0.76415356  0.57870977  0.17070562     0.15000
C753        C  0.74276936  0.51985646  0.15448808     0.36600
C754        C  0.68673882  0.60143011  0.25325298     0.36500
N755        N  0.75250007  0.50443080  0.13271592    -0.43700
N756        N  0.67360857  0.61861254  0.27179186    -0.43700
C757        C  0.42885855  0.74846794  0.32773702    -0.00100
C758        C  0.44069202  0.78058324  0.33054290    -0.12000
C759        C  0.47039240  0.78708941  0.34672945     0.02100
C760        C  0.48823645  0.76131114  0.36069688    -0.00200
C761        C  0.47562997  0.72975474  0.35967495    -0.11900
C762        C  0.44631153  0.72301752  0.34349986     0.02000
H763        H  0.42766762  0.80038647  0.31882000     0.15000
H764        H  0.48941471  0.71006623  0.37081552     0.15000
C765        C  0.43533382  0.68954714  0.34355730     0.36600
C766        C  0.48298939  0.81995767  0.34754318     0.36500
N767        N  0.42700042  0.66259929  0.34394414    -0.43700
N768        N  0.49334535  0.84620779  0.34827235    -0.43700
C769        C  0.61032400  0.74757811  0.34803988    -0.00100
C770        C  0.62986477  0.72145579  0.35851312    -0.12000
C771        C  0.65892307  0.71241691  0.34141241     0.02100
C772        C  0.66901905  0.72993530  0.31316529    -0.00200
C773        C  0.64842599  0.75525090  0.30207378    -0.11900
C774        C  0.61939736  0.76413304  0.31913799     0.02000
H775        H  0.62259137  0.70835947  0.38051109     0.15000
H776        H  0.65540146  0.76880663  0.28028314     0.15000
C777        C  0.60026427  0.79132951  0.30732857     0.36600
C778        C  0.67821540  0.68611742  0.35460965     0.36500
N779        N  0.58485250  0.81305987  0.29787165    -0.43700
N780        N  0.69292929  0.66484418  0.36588176    -0.43700
C781        C  0.74464358  0.34446119  0.21848022    -0.00100
C782        C  0.72359562  0.34705788  0.19168290    -0.12000
C783        C  0.70767811  0.37656099  0.18431536     0.02100
C784        C  0.71254226  0.40439636  0.20405303    -0.00200
C785        C  0.73505154  0.40218486  0.22972534    -0.11900
C786        C  0.75129303  0.37282978  0.23679694     0.02000
H787        H  0.71897769  0.32577875  0.17682948     0.15000
H788        H  0.73954185  0.42333887  0.24478788     0.15000
C789        C  0.77595490  0.37301828  0.26193125     0.36600
C790        C  0.68671292  0.37761218  0.15614206     0.36500
N791        N  0.79608115  0.37349236  0.28172120    -0.43700
N792        N  0.66980100  0.37840389  0.13364065    -0.43700
C793        C  0.67161560  0.21576057  0.31771260    -0.00100
C794        C  0.66411289  0.23815490  0.34279367    -0.12000
C795        C  0.63515610  0.23497947  0.36220159     0.02100
C796        C  0.61362925  0.20839328  0.35750312    -0.00200
C797        C  0.61959899  0.18768790  0.33088926    -0.11900
C798        C  0.64770439  0.19156559  0.31061473     0.02000
H799        H  0.68121402  0.25782435  0.34785882     0.15000
H800        H  0.60244594  0.16794321  0.32619586     0.15000
C801        C  0.65053585  0.17072889  0.28239070     0.36600
C802        C  0.62729426  0.26012596  0.38561273     0.36500
N803        N  0.65196449  0.15405138  0.25969957    -0.43700
N804        N  0.62084486  0.28085435  0.40372112    -0.43700
C805        C  0.49370333  0.18007002  0.37428930    -0.00100
C806        C  0.49006322  0.15858246  0.34797558    -0.12000
C807        C  0.45962969  0.15600676  0.33217123     0.02100
C808        C  0.43261844  0.17540414  0.34259852    -0.00200
C809        C  0.43555960  0.19509743  0.37024711    -0.11900
C810        C  0.46576194  0.19753523  0.38624531     0.02000
H811        H  0.51133426  0.14468927  0.33909896     0.15000
H812        H  0.41469874  0.21014248  0.37811415     0.15000
C813        C  0.46799245  0.21996074  0.41323336     0.36600
C814        C  0.45728218  0.13526518  0.30392867     0.36500
N815        N  0.46979117  0.23780180  0.43493941    -0.43700
N816        N  0.45511140  0.11865286  0.28131002    -0.43700
C817        C  0.79197373  0.60781523  0.56472649    -0.00100
C818        C  0.76455492  0.62740047  0.57328778    -0.12000
C819        C  0.76509424  0.64716997  0.60102913     0.02100
C820        C  0.79364115  0.64742117  0.62062061    -0.00200
C821        C  0.82067357  0.62710637  0.61231796    -0.11900
C822        C  0.82007290  0.60747054  0.58460628     0.02000
H823        H  0.74320342  0.62812446  0.55751968     0.15000
H824        H  0.84266280  0.62696433  0.62724298     0.15000
C825        C  0.84937307  0.58881545  0.57583428     0.36600
C826        C  0.73705528  0.66842177  0.60742077     0.36500
N827        N  0.87281599  0.57393444  0.56854659    -0.43700
N828        N  0.71459894  0.68549893  0.61236488    -0.43700
C829        C  0.79638655  0.62018502  0.44524600    -0.00100
C830        C  0.82218355  0.64297481  0.44102681    -0.12000
C831        C  0.82292830  0.66433975  0.41425834     0.02100
C832        C  0.79716371  0.66329464  0.39123869    -0.00200
C833        C  0.77052407  0.64150611  0.39686329    -0.11900
C834        C  0.76988275  0.62027173  0.42344487     0.02000
H835        H  0.84221707  0.64354162  0.45835908     0.15000
H836        H  0.75033319  0.64025956  0.37988214     0.15000
C837        C  0.74137337  0.59926841  0.42820791     0.36600
C838        C  0.85128281  0.68560809  0.41034921     0.36500
N839        N  0.71847079  0.58255705  0.43211616    -0.43700
N840        N  0.87413377  0.70253786  0.40730343    -0.43700
C841        C  0.56535388  0.78849854  0.52416887    -0.00100
C842        C  0.54831225  0.81133124  0.50524044    -0.12000
C843        C  0.54605806  0.80753265  0.47143478     0.02100
C844        C  0.56092703  0.78028180  0.45599931    -0.00200
C845        C  0.57883966  0.75799585  0.47485213    -0.11900
C846        C  0.58104421  0.76179305  0.50864290     0.02000
H847        H  0.53623825  0.83191499  0.51705402     0.15000
H848        H  0.59005419  0.73681115  0.46331670     0.15000
C849        C  0.59763252  0.73681997  0.52706105     0.36600
C850        C  0.52848247  0.83199803  0.45319897     0.36500
N851        N  0.61084907  0.71683467  0.54192422    -0.43700
N852        N  0.51426156  0.85149738  0.43858726    -0.43700
C853        C  0.62126821  0.78799612  0.63288296    -0.00100
C854        C  0.62146944  0.76510948  0.65832365    -0.12000
C855        C  0.65027914  0.75877598  0.67594756     0.02100
C856        C  0.68080132  0.77402926  0.66724499    -0.00200
C857        C  0.68041514  0.79811070  0.64280362    -0.11900
C858        C  0.65099859  0.80556216  0.62610199     0.02000
H859        H  0.59895364  0.75176828  0.66452530     0.15000
H860        H  0.70316864  0.81105687  0.63656115     0.15000
C861        C  0.65168706  0.83220262  0.60311225     0.36600
C862        C  0.64684568  0.73825885  0.70438871     0.36500
N863        N  0.65202052  0.85365911  0.58480313    -0.43700
N864        N  0.64324465  0.72249062  0.72757616    -0.43700
C865        C  0.73513808  0.59991566  0.77240007    -0.00100
C866        C  0.70849107  0.59176517  0.75213451    -0.12000
C867        C  0.69020270  0.56315834  0.75698577     0.02100
C868        C  0.69813545  0.54207246  0.78281760    -0.00200
C869        C  0.72431767  0.55017517  0.80335562    -0.11900
C870        C  0.74276937  0.57869336  0.79851891     0.02000
H871        H  0.70233798  0.60732661  0.73176321     0.15000
H872        H  0.73052208  0.53391797  0.82320294     0.15000
C873        C  0.76911599  0.58528241  0.82101471     0.36600
C874        C  0.66466831  0.55520415  0.73401563     0.36500
N875        N  0.79026648  0.59034291  0.83906494    -0.43700
N876        N  0.64429777  0.54891907  0.71549361    -0.43700
C877        C  0.43305456  0.76351623  0.65116136    -0.00100
C878        C  0.44434389  0.79593205  0.65263257    -0.12000
C879        C  0.47582180  0.80479667  0.63985346     0.02100
C880        C  0.49646840  0.78114355  0.62496600    -0.00200
C881        C  0.48483121  0.74913974  0.62241369    -0.11900
C882        C  0.45358606  0.74014907  0.63517104     0.02000
H883        H  0.42896384  0.81424737  0.66455672     0.15000
H884        H  0.50031446  0.73104008  0.61023273     0.15000
C885        C  0.44305596  0.70688307  0.63062356     0.36600
C886        C  0.48643986  0.83821139  0.64229375     0.36500
N887        N  0.43472448  0.68020801  0.62698121    -0.43700
N888        N  0.49491393  0.86502025  0.64435500    -0.43700
C889        C  0.33493233  0.63645637  0.36576559    -0.00100
C890        C  0.32122863  0.60566898  0.37175050    -0.12000
C891        C  0.32623892  0.58959990  0.40143625     0.02100
C892        C  0.34618960  0.60409688  0.42562621    -0.00200
C893        C  0.35875517  0.63560563  0.41984917    -0.11900
C894        C  0.35267255  0.65202541  0.39057863     0.02000
H895        H  0.30626287  0.59427605  0.35323169     0.15000
H896        H  0.37330325  0.64758501  0.43829732     0.15000
C897        C  0.36292941  0.68556157  0.38738842     0.36600
C898        C  0.30923834  0.55904898  0.40678898     0.36500
N899        N  0.37063345  0.71260818  0.38510981    -0.43700
N900        N  0.29564648  0.53453585  0.41098562    -0.43700
C901        C  0.35369697  0.60615180  0.54815637    -0.00100
C902        C  0.33236666  0.59215667  0.57184186    -0.12000
C903        C  0.32665972  0.60727383  0.60190918     0.02100
C904        C  0.34222141  0.63711402  0.60866802    -0.00200
C905        C  0.36438387  0.65071219  0.58556936    -0.11900
C906        C  0.37028602  0.63546492  0.55542982     0.02000
H907        H  0.31979504  0.56944167  0.56668379     0.15000
H908        H  0.37633844  0.67373113  0.59071792     0.15000
C909        C  0.39374933  0.65007948  0.53268627     0.36600
C910        C  0.30540626  0.59129516  0.62578014     0.36500
N911        N  0.41256079  0.66184584  0.51449154    -0.43700
N912        N  0.28866487  0.57820829  0.64495655    -0.43700
C913        C  0.74407706  0.36575418  0.77296601    -0.00100
C914        C  0.72998696  0.38201826  0.74637417    -0.12000
C915        C  0.71056077  0.40996278  0.75117588     0.02100
C916        C  0.70484667  0.42187511  0.78295403    -0.00200
C917        C  0.71886632  0.40597046  0.80948725    -0.11900
C918        C  0.73835645  0.37808224  0.80482728     0.02000
H919        H  0.73399322  0.37277052  0.72184791     0.15000
H920        H  0.71426608  0.41522128  0.83393088     0.15000
C921        C  0.75034897  0.36175628  0.83345627     0.36600
C922        C  0.69634673  0.42605122  0.72337012     0.36500
N923        N  0.75949383  0.34903013  0.85680602    -0.43700
N924        N  0.68471059  0.43932170  0.70145065    -0.43700
C925        C  0.56704129  0.17052738  0.53744898    -0.00100
C926        C  0.57889169  0.19990381  0.52427744    -0.12000
C927        C  0.57922775  0.20533047  0.49062554     0.02100
C928        C  0.56788852  0.18080346  0.46951101    -0.00200
C929        C  0.55701394  0.15097267  0.48280368    -0.11900
C930        C  0.55627988  0.14577471  0.51650556     0.02000
H931        H  0.58690207  0.21908162  0.54050344     0.15000
H932        H  0.54837404  0.13191775  0.46677489     0.15000
C933        C  0.54450709  0.11493584  0.52903570     0.36600
C934        C  0.58935156  0.23696496  0.47889146     0.36500
N935        N  0.53508563  0.09020249  0.53906226    -0.43700
N936        N  0.59749537  0.26257609  0.47018321    -0.43700
C937        C  0.68460414  0.18832950  0.67496470    -0.00100
C938        C  0.66699657  0.21406915  0.66058310    -0.12000
C939        C  0.63730818  0.20868750  0.64441827     0.02100
C940        C  0.62414687  0.17705694  0.64268128    -0.00200
C941        C  0.64128725  0.15114250  0.65685598    -0.11900
C942        C  0.67130233  0.15640764  0.67296366     0.02000
H943        H  0.67651836  0.23870444  0.66163625     0.15000
H944        H  0.63118909  0.12673563  0.65525805     0.15000
C945        C  0.68699178  0.12866190  0.68783404     0.36600
C946        C  0.62106835  0.23610774  0.62945813     0.36500
N947        N  0.69916377  0.10614308  0.69966334    -0.43700
N948        N  0.60850675  0.25831544  0.61743969    -0.43700
C949        C  0.80088616  0.43892724  0.49373898    -0.00100
C950        C  0.77166946  0.45438414  0.50492306    -0.12000
C951        C  0.76916832  0.48836623  0.50571188     0.02100
C952        C  0.79625316  0.50775021  0.49500788    -0.00200
C953        C  0.82524705  0.49234715  0.48299687    -0.11900
C954        C  0.82781262  0.45820284  0.48245841     0.02000
H955        H  0.75089024  0.43974711  0.51370248     0.15000
H956        H  0.84633746  0.50703671  0.47513472     0.15000
C957        C  0.85888726  0.44354522  0.47205954     0.36600
C958        C  0.73851304  0.50269139  0.51776596     0.36500
N959        N  0.88383176  0.43176807  0.46383634    -0.43700
N960        N  0.71382353  0.51387099  0.52751187    -0.43700
C961        C  0.81072750  0.32503802  0.44705926    -0.00100
C962        C  0.78467229  0.30285859  0.44248949    -0.12000
C963        C  0.78689044  0.27898160  0.41830329     0.02100
C964        C  0.81572665  0.27672893  0.39834705    -0.00200
C965        C  0.84216113  0.29836621  0.40327319    -0.11900
C966        C  0.83991978  0.32238623  0.42754390     0.02000
H967        H  0.76238586  0.30439419  0.45778317     0.15000
H968        H  0.86403662  0.29724449  0.38738193     0.15000
C969        C  0.86804430  0.34349715  0.43245696     0.36600
C970        C  0.75893472  0.25747814  0.41377938     0.36500
N971        N  0.89070893  0.36026003  0.43648602    -0.43700
N972        N  0.73657560  0.24022831  0.41009735    -0.43700
C973        C  0.79927090  0.34127299  0.56606740    -0.00100
C974        C  0.77343930  0.31955394  0.57405312    -0.12000
C975        C  0.77266486  0.30328041  0.60406274     0.02100
C976        C  0.79839982  0.30843096  0.62644116    -0.00200
C977        C  0.82406092  0.33042098  0.61844528    -0.11900
C978        C  0.82460382  0.34691028  0.58861852     0.02000
H979        H  0.75417785  0.31487622  0.55649957     0.15000
H980        H  0.84403780  0.33438100  0.63539822     0.15000
C981        C  0.85223644  0.36824082  0.58095757     0.36600
C982        C  0.74635821  0.28005318  0.61034949     0.36500
N983        N  0.87423924  0.38540549  0.57457344    -0.43700
N984        N  0.72527011  0.26141790  0.61525436    -0.43700
C985        C  0.43613265  0.18744517  0.66795072    -0.00100
C986        C  0.46118587  0.21146923  0.66762559    -0.12000
C987        C  0.49271139  0.20559025  0.65398536     0.02100
C988        C  0.50011593  0.17509885  0.64005029    -0.00200
C989        C  0.47537807  0.15104408  0.63976024    -0.11900
C990        C  0.44366812  0.15676460  0.65371329     0.02000
H991        H  0.45639245  0.23519943  0.67820613     0.15000
H992        H  0.48090865  0.12770031  0.62858086     0.15000
C993        C  0.41964876  0.13070912  0.65264600     0.36600
C994        C  0.51668852  0.23177743  0.65352449     0.36500
N995        N  0.40061652  0.10962070  0.65177745    -0.43700
N996        N  0.53583569  0.25279272  0.65311073    -0.43700
C997        C  0.36930592  0.43379041  0.49338076    -0.00100
C998        C  0.39383527  0.45026039  0.47482802    -0.12000
C999        C  0.39380735  0.48428265  0.47264058     0.02100
C1000       C  0.36889449  0.50228475  0.48919142    -0.00200
C1001       C  0.34458217  0.48587520  0.50789703    -0.11900
C1002       C  0.34444812  0.45199880  0.51004704     0.02000
H1003       H  0.41307895  0.43647813  0.46207050     0.15000
H1004       H  0.32514768  0.49966214  0.52039832     0.15000
C1005       C  0.31762623  0.43669902  0.52835731     0.36600
C1006       C  0.41994093  0.50024769  0.45405111     0.36500
N1007       N  0.29619478  0.42455955  0.54318771    -0.43700
N1008       N  0.44082956  0.51323860  0.43922390    -0.43700
C1009       C  0.36088650  0.33018604  0.43267973    -0.00100
C1010       C  0.38788621  0.31718029  0.41505988    -0.12000
C1011       C  0.38299885  0.30065672  0.38566837     0.02100
C1012       C  0.35040185  0.29761770  0.37323195    -0.00200
C1013       C  0.32359513  0.31144649  0.39105178    -0.11900
C1014       C  0.32853783  0.32713431  0.42068324     0.02000
H1015       H  0.41274959  0.31943082  0.42464406     0.15000
H1016       H  0.29841650  0.30949625  0.38221841     0.15000
C1017       C  0.29994114  0.33899076  0.43902703     0.36600
C1018       C  0.41180931  0.28608990  0.36997823     0.36500
N1019       N  0.27714979  0.34821692  0.45404347    -0.43700
N1020       N  0.43523044  0.27461510  0.35778672    -0.43700
C1021       C  0.35500877  0.32905047  0.55405048    -0.00100
C1022       C  0.37374629  0.33681239  0.58149943    -0.12000
C1023       C  0.36618480  0.32339116  0.61210725     0.02100
C1024       C  0.33966353  0.30092147  0.61565162    -0.00200
C1025       C  0.32117590  0.29288245  0.58805104    -0.11900
C1026       C  0.32826897  0.30687321  0.55762441     0.02000
H1027       H  0.39417982  0.35393854  0.57912876     0.15000
H1028       H  0.30077565  0.27569186  0.59020344     0.15000
C1029       C  0.30649040  0.29909718  0.53113204     0.36600
C1030       C  0.38527986  0.33441239  0.63943423     0.36500
N1031       N  0.28890222  0.29258270  0.51011272    -0.43700
N1032       N  0.40063794  0.34350785  0.66118292    -0.43700
C1033       C  0.60201105  0.45996835  0.19592062    -0.00100
C1034       C  0.58476042  0.47465452  0.17035252    -0.12000
C1035       C  0.54992023  0.47542566  0.17058212     0.02100
C1036       C  0.53177075  0.46138514  0.19682142    -0.00200
C1037       C  0.54901189  0.44632534  0.22217829    -0.11900
C1038       C  0.58383215  0.44556302  0.22197618     0.02000
H1039       H  0.59860216  0.48560850  0.15019707     0.15000
H1040       H  0.53519256  0.43565764  0.24250950     0.15000
C1041       C  0.60030390  0.43104819  0.24940232     0.36600
C1042       C  0.53331509  0.49016873  0.14337039     0.36500
N1043       N  0.61359651  0.41938225  0.27130083    -0.43700
N1044       N  0.51981332  0.50200803  0.12169277    -0.43700
C1045       C  0.42410897  0.40241446  0.20992675    -0.00100
C1046       C  0.42942215  0.38639999  0.23947157    -0.12000
C1047       C  0.41198698  0.35807209  0.24758963     0.02100
C1048       C  0.38866890  0.34506620  0.22558719    -0.00200
C1049       C  0.38331892  0.36150459  0.19598975    -0.11900
C1050       C  0.40083334  0.38991918  0.18804425     0.02000
H1051       H  0.44702128  0.39640850  0.25650544     0.15000
H1052       H  0.36590257  0.35183269  0.17862503     0.15000
C1053       C  0.39539066  0.40526516  0.15690382     0.36600
C1054       C  0.41828851  0.34365086  0.27899700     0.36500
N1055       N  0.39119372  0.41759757  0.13193743    -0.43700
N1056       N  0.42367365  0.33236137  0.30420665    -0.43700
C1057       C  0.42395112  0.52262292  0.20265957    -0.00100
C1058       C  0.39941178  0.53009029  0.18001052    -0.12000
C1059       C  0.38017420  0.55846621  0.18305034     0.02100
C1060       C  0.38484231  0.57963805  0.20993656    -0.00200
C1061       C  0.40978402  0.57181270  0.23236389    -0.11900
C1062       C  0.42909081  0.54377594  0.22900382     0.02000
H1063       H  0.39545237  0.51371414  0.15971963     0.15000
H1064       H  0.41408959  0.58734730  0.25320096     0.15000
C1065       C  0.45275756  0.53637272  0.25402245     0.36600
C1066       C  0.35688836  0.56519782  0.15754307     0.36500
N1067       N  0.47159522  0.53037847  0.27414808    -0.43700
N1068       N  0.33869687  0.57006032  0.13655407    -0.43700
C1069       C  0.52371338  0.47536332  0.79546606    -0.00100
C1070       C  0.54199364  0.45736038  0.77223294    -0.12000
C1071       C  0.57678975  0.45749218  0.77184132     0.02100
C1072       C  0.59407704  0.47565298  0.79535305    -0.00200
C1073       C  0.57578913  0.49320291  0.81901717    -0.11900
C1074       C  0.54087727  0.49312482  0.81929131     0.02000
H1075       H  0.52899086  0.44392595  0.75363901     0.15000
H1076       H  0.58884048  0.50702224  0.83728840     0.15000
C1077       C  0.52319396  0.51087251  0.84457832     0.36600
C1078       C  0.59403771  0.44017527  0.74594409     0.36500
N1079       N  0.50888968  0.52504423  0.86480257    -0.43700
N1080       N  0.60783455  0.42625429  0.72521934    -0.43700
C1081       C  0.37536223  0.36165568  0.76955660    -0.00100
C1082       C  0.40479061  0.36737859  0.75111285    -0.12000
C1083       C  0.42492864  0.39429022  0.75698607     0.02100
C1084       C  0.41602577  0.41630338  0.78195099    -0.00200
C1085       C  0.38686475  0.41088659  0.80048182    -0.11900
C1086       C  0.36636820  0.38414156  0.79443407     0.02000
H1087       H  0.41222124  0.35092487  0.73165031     0.15000
H1088       H  0.37977268  0.42807437  0.81945001     0.15000
C1089       C  0.33611394  0.38135289  0.81379391     0.36600
C1090       C  0.45385322  0.39939305  0.73611230     0.36500
N1091       N  0.31179715  0.37984489  0.82931262    -0.43700
N1092       N  0.47706708  0.40343454  0.71945049    -0.43700
C1093       C  0.37816426  0.59143305  0.76449090    -0.00100
C1094       C  0.39657396  0.57601704  0.73938014    -0.12000
C1095       C  0.41618592  0.54869796  0.74569562     0.02100
C1096       C  0.41766558  0.53627563  0.77761516    -0.00200
C1097       C  0.39972094  0.55158227  0.80283765    -0.11900
C1098       C  0.38026310  0.57912749  0.79667894     0.02000
H1099       H  0.39545525  0.58516780  0.71460610     0.15000
H1100       H  0.40095658  0.54193589  0.82742320     0.15000
C1101       C  0.36414095  0.59481316  0.82419531     0.36600
C1102       C  0.43425301  0.53352238  0.71898748     0.36500
N1103       N  0.35171725  0.60698201  0.84676192    -0.43700
N1104       N  0.44877547  0.52143281  0.69757120    -0.43700
C1105       C  0.95910225  0.23273512  0.18628055    -0.00100
C1106       C  0.98432184  0.20917071  0.18324487    -0.12000
C1107       C  0.01268347  0.21503117  0.16348123     0.02100
C1108       C  0.01587753  0.24482147  0.14643760    -0.00200
C1109       C  0.99041916  0.26790193  0.14901978    -0.11900
C1110       C  0.96216019  0.26208870  0.16835754     0.02000
H1111       H  0.98202772  0.18641234  0.19650719     0.15000
H1112       H  0.99257697  0.29062656  0.13563729     0.15000
C1113       C  0.93593004  0.28611954  0.16776369     0.36600
C1114       C  0.03762507  0.18987662  0.16015716     0.36500
N1115       N  0.91504579  0.30546116  0.16668525    -0.43700
N1116       N  0.05771980  0.16984100  0.15725316    -0.43700
C1117       C  0.13810187  0.25827705  0.13038332    -0.00100
C1118       C  0.15131466  0.28378382  0.14872033    -0.12000
C1119       C  0.18193830  0.28013618  0.16406594     0.02100
C1120       C  0.19935005  0.25036516  0.16116405    -0.00200
C1121       C  0.18656940  0.22554757  0.14157790    -0.11900
C1122       C  0.15622371  0.22924724  0.12625108     0.02000
H1123       H  0.13718682  0.30610484  0.15185278     0.15000
H1124       H  0.19988753  0.20268117  0.13907712     0.15000
C1125       C  0.14350294  0.20226515  0.10775095     0.36600
C1126       C  0.19366403  0.30638081  0.18417454     0.36500
N1127       N  0.13358300  0.18041138  0.09308662    -0.43700
N1128       N  0.20282154  0.32758850  0.20020976    -0.43700
C1129       C  0.93089201  0.68973020  0.82769689    -0.00100
C1130       C  0.95827505  0.71106027  0.82579718    -0.12000
C1131       C  0.98900998  0.70282880  0.83910252     0.02100
C1132       C  0.99335898  0.67235044  0.85430115    -0.00200
C1133       C  0.96601687  0.65120115  0.85700524    -0.11900
C1134       C  0.93502305  0.65951080  0.84400755     0.02000
H1135       H  0.95578931  0.73447430  0.81388930     0.15000
H1136       H  0.96889475  0.62809119  0.86945178     0.15000
C1137       C  0.90789372  0.63683805  0.84875104     0.36600
C1138       C  0.01517748  0.72689652  0.83848311     0.36500
N1139       N  0.88620832  0.61863130  0.85264264    -0.43700
N1140       N  0.03612644  0.74620090  0.83831208    -0.43700
C1141       C  0.11790186  0.66625902  0.84860750    -0.00100
C1142       C  0.12667760  0.69899891  0.84523881    -0.12000
C1143       C  0.15713927  0.70818705  0.83097371     0.02100
C1144       C  0.17973866  0.68413162  0.81899448    -0.00200
C1145       C  0.17094266  0.65111949  0.82299392    -0.11900
C1146       C  0.14044365  0.64210814  0.83783863     0.02000
H1147       H  0.10976378  0.71757223  0.85450447     0.15000
H1148       H  0.18767860  0.63223850  0.81416986     0.15000
C1149       C  0.13261518  0.60803338  0.84155705     0.36600
C1150       C  0.16454054  0.74258044  0.83035767     0.36500
N1151       N  0.12630813  0.58071251  0.84456825    -0.43700
N1152       N  0.17021489  0.77018698  0.83038474    -0.43700
C1153       C  0.24381918  0.84882508  0.25596196    -0.00100
C1154       C  0.24968644  0.86444303  0.28586611    -0.12000
C1155       C  0.23108304  0.89163994  0.29576080     0.02100
C1156       C  0.20527074  0.90326501  0.27610498    -0.00200
C1157       C  0.19931769  0.88802978  0.24628680    -0.11900
C1158       C  0.21857745  0.86149103  0.23575540     0.02000
H1159       H  0.26875316  0.85531782  0.30184095     0.15000
H1160       H  0.18020993  0.89768044  0.23062471     0.15000
C1161       C  0.21270515  0.84920846  0.20340951     0.36600
C1162       C  0.23891100  0.90717304  0.32622403     0.36500
N1163       N  0.20781907  0.84001867  0.17727940    -0.43700
N1164       N  0.24541299  0.91976656  0.35049925    -0.43700
C1165       C  0.24165035  0.08016057  0.27735685    -0.00100
C1166       C  0.21138332  0.07578387  0.26110246    -0.12000
C1167       C  0.19211689  0.04781030  0.26567669     0.02100
C1168       C  0.20255281  0.02339895  0.28741382    -0.00200
C1169       C  0.23216930  0.02794268  0.30442288    -0.11900
C1170       C  0.25171161  0.05583859  0.29968023     0.02000
H1171       H  0.20283004  0.09395811  0.24400789     0.15000
H1172       H  0.24037960  0.00924262  0.32114742     0.15000
C1173       C  0.28217080  0.05809177  0.31762802     0.36600
C1174       C  0.16281232  0.04402055  0.24618755     0.36500
N1175       N  0.30659029  0.05977911  0.33201661    -0.43700
N1176       N  0.13931439  0.04094437  0.23062318    -0.43700
C1177       C  0.87353546  0.86756443  0.72901092    -0.00100
C1178       C  0.88214985  0.88780020  0.75494505    -0.12000
C1179       C  0.90225787  0.91506840  0.74963963     0.02100
C1180       C  0.91454097  0.92212589  0.71794071    -0.00200
C1181       C  0.90634220  0.90170668  0.69198094    -0.11900
C1182       C  0.88584277  0.87455233  0.69725380     0.02000
H1183       H  0.87309284  0.88226334  0.77942376     0.15000
H1184       H  0.91568921  0.90718526  0.66759541     0.15000
C1185       C  0.87886281  0.85355755  0.67002749     0.36600
C1186       C  0.91031443  0.93518482  0.77722389     0.36500
N1187       N  0.87334443  0.83667568  0.64823430    -0.43700
N1188       N  0.91665924  0.95111620  0.79949454    -0.43700
C1189       C  0.91791817  0.04147702  0.71859910    -0.00100
C1190       C  0.90956242  0.04843480  0.75115000    -0.12000
C1191       C  0.89031089  0.07563398  0.75913286     0.02100
C1192       C  0.87854490  0.09594791  0.73406752    -0.00200
C1193       C  0.88688796  0.08889977  0.70142198    -0.11900
C1194       C  0.90679052  0.06196421  0.69356300     0.02000
H1195       H  0.91778526  0.03225714  0.77031675     0.15000
H1196       H  0.87824455  0.10469875  0.68214121     0.15000
C1197       C  0.91523554  0.05554809  0.65980945     0.36600
C1198       C  0.88208361  0.08147495  0.79309768     0.36500
N1199       N  0.92216870  0.05043381  0.63277732    -0.43700
N1200       N  0.87562124  0.08616339  0.82031798    -0.43700
C1201       C  0.27758965  0.14625619  0.87985729    -0.00100
C1202       C  0.30131075  0.14572080  0.90474306    -0.12000
C1203       C  0.29553223  0.12874178  0.93394101     0.02100
C1204       C  0.26534483  0.11181268  0.93910878    -0.00200
C1205       C  0.24168763  0.11194874  0.91443065    -0.11900
C1206       C  0.24737067  0.12891199  0.88511911     0.02000
H1207       H  0.32472464  0.15852387  0.90148740     0.15000
H1208       H  0.21855895  0.09872801  0.91813591     0.15000
C1209       C  0.22179661  0.12738707  0.86093297     0.36600
C1210       C  0.32155979  0.12806240  0.95774934     0.36500
N1211       N  0.20129588  0.12614227  0.84155221    -0.43700
N1212       N  0.34222270  0.12742684  0.97700174    -0.43700
C1213       C  0.28296970  0.13105532  0.12182268    -0.00100
C1214       C  0.25761890  0.14488579  0.10318399    -0.12000
C1215       C  0.24927118  0.13171226  0.07290884     0.02100
C1216       C  0.26593700  0.10370273  0.06117217    -0.00200
C1217       C  0.29057342  0.08932226  0.08035642    -0.11900
C1218       C  0.29939733  0.10288620  0.11026184     0.02000
H1219       H  0.24494602  0.16660122  0.11189250     0.15000
H1220       H  0.30350791  0.06776496  0.07158731     0.15000
C1221       C  0.32502729  0.08716011  0.12879541     0.36600
C1222       C  0.22346957  0.14724413  0.05444182     0.36500
N1223       N  0.34559483  0.07443285  0.14350980    -0.43700
N1224       N  0.20299657  0.15972894  0.03940041    -0.43700
C1225       C  0.82020774  0.84377010  0.94251271    -0.00100
C1226       C  0.84772234  0.82515053  0.93215594    -0.12000
C1227       C  0.84834972  0.81001476  0.90151109     0.02100
C1228       C  0.82052158  0.81272621  0.88108497    -0.00200
C1229       C  0.79354092  0.83232526  0.89119915    -0.11900
C1230       C  0.79334673  0.84809835  0.92136415     0.02000
H1231       H  0.86855015  0.82206308  0.94830506     0.15000
H1232       H  0.77224413  0.83504951  0.87557329     0.15000
C1233       C  0.76477868  0.86768304  0.93049427     0.36600
C1234       C  0.87712908  0.79071874  0.89252629     0.36500
N1235       N  0.74204169  0.88361141  0.93770587    -0.43700
N1236       N  0.90040085  0.77544072  0.88553990    -0.43700
C1237       C  0.81453919  0.82322733  0.06173473    -0.00100
C1238       C  0.84519622  0.81104773  0.07174036    -0.12000
C1239       C  0.84687833  0.78763397  0.09639759     0.02100
C1240       C  0.81732073  0.77552714  0.11131233    -0.00200
C1241       C  0.78646546  0.78691902  0.10046629    -0.11900
C1242       C  0.78490684  0.81082977  0.07598447     0.02000
H1243       H  0.86796500  0.82006343  0.06030659     0.15000
H1244       H  0.76367756  0.77825669  0.11212205     0.15000
C1245       C  0.75279863  0.82271011  0.06620950     0.36600
C1246       C  0.87940470  0.77647949  0.10585270     0.36500
N1247       N  0.72707485  0.83236012  0.05844399    -0.43700
N1248       N  0.90563862  0.76783894  0.11318501    -0.43700
C1249       C  0.05723659  0.28239231  0.96903397    -0.00100
C1250       C  0.07310759  0.30645182  0.98725622    -0.12000
C1251       C  0.07590218  0.30330784  0.02106751     0.02100
C1252       C  0.06291729  0.27545031  0.03702415    -0.00200
C1253       C  0.04651173  0.25171358  0.01876930    -0.11900
C1254       C  0.04374258  0.25485523  0.98502548     0.02000
H1255       H  0.08343910  0.32765514  0.97496950     0.15000
H1256       H  0.03687751  0.23005153  0.03077659     0.15000
C1257       C  0.02873367  0.22861492  0.96710557     0.36600
C1258       C  0.09163638  0.32922345  0.03880913     0.36500
N1259       N  0.01682727  0.20764975  0.95258436    -0.43700
N1260       N  0.10424286  0.35008759  0.05289644    -0.43700
C1261       C  0.93032646  0.26527658  0.84032809    -0.00100
C1262       C  0.95789696  0.24543546  0.83243334    -0.12000
C1263       C  0.98919482  0.25131302  0.84538563     0.02100
C1264       C  0.99384514  0.27809702  0.86629853    -0.00200
C1265       C  0.96647871  0.29815612  0.87410764    -0.11900
C1266       C  0.93488938  0.29192740  0.86154037     0.02000
H1267       H  0.95504160  0.22488289  0.81617845     0.15000
H1268       H  0.96968021  0.31841625  0.89067482     0.15000
C1269       C  0.90750580  0.31215260  0.87245585     0.36600
C1270       C  0.01555129  0.22829799  0.83825321     0.36500
N1271       N  0.88579703  0.32842841  0.88171085    -0.43700
N1272       N  0.03671252  0.20990360  0.83262254    -0.43700
C1273       C  0.11820231  0.27770443  0.86338138    -0.00100
C1274       C  0.13621075  0.30370166  0.84986359    -0.12000
C1275       C  0.16702913  0.29850835  0.83397396     0.02100
C1276       C  0.17993055  0.26642008  0.83082409    -0.00200
C1277       C  0.16157847  0.24059572  0.84491517    -0.11900
C1278       C  0.13123108  0.24599859  0.86118060     0.02000
H1279       H  0.12632027  0.32818447  0.85212064     0.15000
H1280       H  0.17101646  0.21589478  0.84353727     0.15000
C1281       C  0.11393772  0.21859302  0.87567365     0.36600
C1282       C  0.18441287  0.32675403  0.82151909     0.36500
N1283       N  0.10014339  0.19666650  0.88738438    -0.43700
N1284       N  0.19791920  0.34988422  0.81209488    -0.43700
C1285       C  0.05850490  0.65467488  0.95445412    -0.00100
C1286       C  0.04106239  0.63161720  0.97340081    -0.12000
C1287       C  0.04113519  0.63309595  0.00759858     0.02100
C1288       C  0.05884360  0.65808829  0.02325092    -0.00200
C1289       C  0.07597243  0.68125305  0.00421588    -0.11900
C1290       C  0.07580078  0.67990531  0.97019819     0.02000
H1291       H  0.02758955  0.61230686  0.96142438     0.15000
H1292       H  0.08934552  0.70071969  0.01607469     0.15000
C1293       C  0.09249744  0.70549022  0.95205692     0.36600
C1294       C  0.02379366  0.60813175  0.02589455     0.36500
N1295       N  0.10583052  0.72599391  0.93751886    -0.43700
N1296       N  0.00981028  0.58784886  0.04014049    -0.43700
C1297       C  0.95341565  0.69420379  0.17679024    -0.00100
C1298       C  0.95496471  0.66444172  0.15994280    -0.12000
C1299       C  0.98144769  0.65714342  0.13866547     0.02100
C1300       C  0.00739514  0.67974009  0.13396916    -0.00200
C1301       C  0.00619584  0.70945793  0.15098397    -0.11900
C1302       C  0.97936769  0.71695709  0.17214439     0.02000
H1303       H  0.93510818  0.64677629  0.16313895     0.15000
H1304       H  0.02632597  0.72679755  0.14773485     0.15000
C1305       C  0.97977255  0.74741031  0.18964545     0.36600
C1306       C  0.98189889  0.62579896  0.12283645     0.36500
N1307       N  0.98026876  0.77179608  0.20371386    -0.43700
N1308       N  0.98209771  0.60059403  0.11030881    -0.43700
C1309       C  0.13028850  0.66755110  0.12017576    -0.00100
C1310       C  0.15247094  0.69054502  0.10682443    -0.12000
C1311       C  0.18386340  0.69513928  0.12006264     0.02100
C1312       C  0.19351684  0.67644063  0.14713940    -0.00200
C1313       C  0.17204012  0.65237083  0.15958098    -0.11900
C1314       C  0.14047107  0.64788874  0.14642464     0.02000
H1315       H  0.14491280  0.70550419  0.08644806     0.15000
H1316       H  0.17940672  0.63796944  0.18042006     0.15000
C1317       C  0.11913556  0.62294082  0.16015264     0.36600
C1318       C  0.20589671  0.71895212  0.10526915     0.36500
N1319       N  0.10218530  0.60286916  0.17124998    -0.43700
N1320       N  0.22363206  0.73786749  0.09329840    -0.43700
C1321       C  0.02379150  0.97952115  0.70368664    -0.00100
C1322       C  0.04098211  0.99628434  0.67866314    -0.12000
C1323       C  0.07588060  0.99616718  0.67690220     0.02100
C1324       C  0.09406876  0.97936167  0.70067962    -0.00200
C1325       C  0.07693283  0.96310193  0.72595926    -0.11900
C1326       C  0.04214604  0.96306021  0.72768823     0.02000
H1327       H  0.02707931  0.00905684  0.66020192     0.15000
H1328       H  0.09085997  0.95062220  0.74461069     0.15000
C1329       C  0.02596753  0.94667235  0.75484259     0.36600
C1330       C  0.09249624  0.01237970  0.64991771     0.36500
N1331       N  0.01302057  0.93340193  0.77651915    -0.43700
N1332       N  0.10595645  0.02520903  0.62826702    -0.43700
C1333       C  0.19967125  0.91545158  0.70392814    -0.00100
C1334       C  0.22783364  0.90980632  0.68395077    -0.12000
C1335       C  0.24661433  0.88125617  0.68695378     0.02100
C1336       C  0.23677109  0.85725877  0.71010629    -0.00200
C1337       C  0.20850243  0.86340197  0.73012189    -0.11900
C1338       C  0.19034917  0.89213963  0.72752186     0.02000
H1339       H  0.23548190  0.92811023  0.66625101     0.15000
H1340       H  0.20062292  0.84598673  0.74858400     0.15000
C1341       C  0.16340943  0.89785658  0.75068925     0.36600
C1342       C  0.27618651  0.87824225  0.66659545     0.36500
N1343       N  0.14189041  0.90254332  0.76926696    -0.43700
N1344       N  0.29994487  0.87646036  0.65027192    -0.43700
C1345       C  0.20343610  0.03526195  0.71504803    -0.12900
C1346       C  0.23254804  0.04150721  0.69669016    -0.12000
C1347       C  0.25263281  0.06834770  0.70338349     0.02100
C1348       C  0.24357817  0.08980545  0.72919284    -0.00200
C1349       C  0.21464220  0.08292814  0.74788201    -0.11900
C1350       C  0.19475455  0.05605054  0.74117018     0.02000
H1351       H  0.23949599  0.02537470  0.67675561     0.15000
H1352       H  0.20726693  0.09862566  0.76799391     0.15000
C1353       C  0.16631080  0.04983113  0.76234601     0.36600
C1354       C  0.28173585  0.07311645  0.68268014     0.36500
N1355       N  0.14353040  0.04499251  0.77936395    -0.43700
N1356       N  0.30493126  0.07652206  0.66583921    -0.43700
C1357       C  0.02602157  0.96053595  0.30613835    -0.00100
C1358       C  0.04118297  0.94603363  0.27863406    -0.12000
C1359       C  0.07587042  0.94604564  0.27428431     0.02100
C1360       C  0.09624379  0.95990286  0.29828607    -0.00200
C1361       C  0.08106199  0.97439543  0.32581242    -0.11900
C1362       C  0.04631290  0.97501035  0.32979585     0.02000
H1363       H  0.02575707  0.93563178  0.25990905     0.15000
H1364       H  0.09644935  0.98531093  0.34426653     0.15000
C1365       C  0.03210975  0.99028908  0.35853614     0.36600
C1366       C  0.08972728  0.93374638  0.24396007     0.36500
N1367       N  0.02071490  0.00268636  0.38149093    -0.43700
N1368       N  0.10073140  0.92420186  0.21949221    -0.43700
C1369       C  0.91772506  0.90164954  0.30190470    -0.00100
C1370       C  0.89790938  0.89704474  0.27452787    -0.12000
C1371       C  0.88470077  0.86631184  0.26720268     0.02100
C1372       C  0.89180387  0.83898748  0.28711728    -0.00200
C1373       C  0.91016832  0.84402205  0.31545701    -0.11900
C1374       C  0.92288947  0.87491779  0.32302993     0.02000
H1375       H  0.89328150  0.91740806  0.25838690     0.15000
H1376       H  0.91488914  0.82370186  0.33161692     0.15000
C1377       C  0.94050855  0.87882674  0.35310289     0.36600
C1378       C  0.86255733  0.86401018  0.23998830     0.36500
N1379       N  0.95439816  0.88208461  0.37732804    -0.43700
N1380       N  0.84447201  0.86240242  0.21843731    -0.43700
C1381       C  0.92153807  0.02588930  0.30461601    -0.00100
C1382       C  0.93572204  0.04752269  0.28174710    -0.12000
C1383       C  0.92435167  0.07951569  0.27861378     0.02100
C1384       C  0.89704046  0.09077866  0.29785638    -0.00200
C1385       C  0.88278609  0.06929164  0.32105061    -0.11900
C1386       C  0.89484246  0.03716469  0.32462167     0.02000
H1387       H  0.95636833  0.03945881  0.26632852     0.15000
H1388       H  0.86189378  0.07740884  0.33608670     0.15000
C1389       C  0.88019925  0.01667042  0.34962130     0.36600
C1390       C  0.94242003  0.10054589  0.25624449     0.36500
N1391       N  0.86856501  0.00019287  0.36970500    -0.43700
N1392       N  0.95721407  0.11719863  0.23839998    -0.43700
C1393       C  0.80972492  0.93820716  0.01811354    -0.00100
C1394       C  0.78452587  0.95422295  0.00120189    -0.12000
C1395       C  0.78236410  0.98819781  0.00075470     0.02100
C1396       C  0.80583058  0.00719290  0.01759272    -0.00200
C1397       C  0.83020291  0.99106403  0.03580989    -0.11900
C1398       C  0.83242314  0.95689779  0.03605208     0.02000
H1399       H  0.76680527  0.94000582  0.98757839     0.15000
H1400       H  0.84854677  0.00521715  0.04864928     0.15000
C1401       C  0.85947995  0.94171867  0.05301770     0.36600
C1402       C  0.75565730  0.00259927  0.98270185     0.36500
N1403       N  0.88119282  0.92947574  0.06652967    -0.43700
N1404       N  0.73398782  0.01331231  0.96795325    -0.43700
C1405       C  0.81441847  0.14306825  0.88851053    -0.00100
C1406       C  0.78550535  0.12630148  0.89855836    -0.12000
C1407       C  0.78440231  0.10841365  0.92751801     0.02100
C1408       C  0.81257061  0.10714758  0.94732474    -0.00200
C1409       C  0.84189711  0.12300142  0.93701489    -0.11900
C1410       C  0.84320089  0.14063681  0.90769543     0.02000
H1411       H  0.76335783  0.12751168  0.88389999     0.15000
H1412       H  0.86363332  0.12206359  0.95225931     0.15000
C1413       C  0.87383171  0.15705708  0.89879995     0.36600
C1414       C  0.75342715  0.09310155  0.93707638     0.36500
N1415       N  0.89842778  0.17012240  0.89166384    -0.43700
N1416       N  0.72826497  0.08120864  0.94430962    -0.43700
C1417       C  0.81631393  0.11912397  0.06744131    -0.00100
C1418       C  0.84703325  0.11917341  0.08292578    -0.12000
C1419       C  0.85349843  0.14110578  0.10815256     0.02100
C1420       C  0.82838224  0.16287292  0.11934350    -0.00200
C1421       C  0.79789181  0.16339502  0.10304937    -0.11900
C1422       C  0.79184003  0.14199592  0.07715589     0.02000
H1423       H  0.86643363  0.10261982  0.07456278     0.15000
H1424       H  0.77827484  0.17977842  0.11121564     0.15000
C1425       C  0.76001752  0.14335661  0.06147550     0.36600
C1426       C  0.88680843  0.14192338  0.12066909     0.36500
N1427       N  0.73448168  0.14451473  0.04896382    -0.43700
N1428       N  0.91379318  0.14272400  0.12997286    -0.43700
C1429       C  0.24899198  0.00467997  0.99450373    -0.00100
C1430       C  0.27533901  0.98769159  0.00858638    -0.12000
C1431       C  0.27707947  0.95383631  0.00713557     0.02100
C1432       C  0.25183215  0.93611346  0.99153097    -0.00200
C1433       C  0.22536249  0.95310001  0.97736230    -0.11900
C1434       C  0.22370786  0.98719403  0.97885885     0.02000
H1435       H  0.29508302  0.00107662  0.02025886     0.15000
H1436       H  0.20583834  0.93968312  0.96542142     0.15000
C1437       C  0.19541358  0.00366755  0.96528490     0.36600
C1438       C  0.30586546  0.93810101  0.02066986     0.36500
N1439       N  0.17272417  0.01704552  0.95461745    -0.43700
N1440       N  0.32889488  0.92553032  0.03159802    -0.43700
C1441       C  0.26400105  0.83654362  0.92240343    -0.00100
C1442       C  0.24717314  0.80741527  0.91569140    -0.12000
C1443       C  0.25093037  0.79191649  0.88532959     0.02100
C1444       C  0.27159599  0.80575062  0.86075122    -0.00200
C1445       C  0.28835436  0.83485933  0.86737385    -0.11900
C1446       C  0.28486973  0.85023464  0.89774873     0.02000
H1447       H  0.23146159  0.79640785  0.93446420     0.15000
H1448       H  0.30499695  0.84518065  0.84895546     0.15000
C1449       C  0.30455608  0.87898962  0.90348738     0.36600
C1450       C  0.23559217  0.76051544  0.88113745     0.36500
N1451       N  0.32022048  0.90208383  0.90813367    -0.43700
N1452       N  0.22359206  0.73511260  0.87838796    -0.43700
C1453       C  0.27179862  0.82901520  0.04495791    -0.00100
C1454       C  0.30150334  0.81109675  0.04588680    -0.12000
C1455       C  0.31131443  0.79509310  0.07440884     0.02100
C1456       C  0.29092158  0.79657962  0.10308145    -0.00200
C1457       C  0.26113387  0.81459721  0.10187902    -0.11900
C1458       C  0.25146436  0.83055092  0.07339837     0.02000
H1459       H  0.31751203  0.81009036  0.02429605     0.15000
H1460       H  0.24497865  0.81613461  0.12329237     0.15000
C1461       C  0.22000528  0.84758443  0.07382925     0.36600
C1462       C  0.34223384  0.77718811  0.07286350     0.36500
N1463       N  0.19483970  0.86130416  0.07418330    -0.43700
N1464       N  0.36715671  0.76310865  0.07101105    -0.43700
loop_ 
_geom_bond_atom_site_label_1 
_geom_bond_atom_site_label_2 
_geom_bond_distance 
_geom_bond_site_symmetry_2 
_ccdc_geom_bond_type 
C1            C2   1.411       .  A
C1            C6   1.406       .  A
C1         C1441   1.494       .  S
C2            C3   1.409   1_556  A
C2            H7   1.083       .  S
C3            C4   1.402       .  A
C3         C1453   1.491       .  S
C4            C5   1.401   1_554  A
C4            H8   1.084       .  S
C5            C6   1.401       .  A
C5         C1432   1.484       .  S
C6            H9   1.083       .  S
C10          C11   1.399       .  A
C10          C15   1.409       .  A
C10        C1417   1.483       .  S
C11          C12   1.398   1_554  A
C11          H16   1.084       .  S
C12          C13   1.402       .  A
C12        C1408   1.479       .  S
C13          C14   1.409   1_556  A
C13          H17   1.084       .  S
C14          C15   1.412       .  A
C14        C1396   1.495       .  S
C15          H18   1.083       .  S
C19          C20   1.405       .  A
C19          C24   1.417       .  A
C19        C1369   1.496       .  S
C20          C21   1.400       .  A
C20          H25   1.084       .  S
C21          C22   1.400       .  A
C21        C1357   1.487   1_655  S
C22          C23   1.408       .  A
C22          H26   1.084   1_565  S
C23          C24   1.416       .  A
C23        C1381   1.502   1_565  S
C24          H27   1.083       .  S
C28          C29   1.399   1_545  A
C28          C33   1.405       .  A
C28        C1345   1.479       .  S
C29          C30   1.397       .  A
C29          H34   1.084       .  S
C30          C31   1.403       .  A
C30        C1333   1.477       .  S
C31          C32   1.402       .  A
C31          H35   1.084       .  S
C32          C33   1.402   1_565  A
C32        C1324   1.480       .  S
C33          H36   1.084       .  S
C37          C38   1.400       .  A
C37          C42   1.401       .  A
C37        C1309   1.478       .  S
C38          C39   1.402       .  A
C38          H43   1.084       .  S
C39          C40   1.406       .  A
C39        C1288   1.483       .  S
C40          C41   1.409       .  A
C40          H44   1.084       .  S
C41          C42   1.402       .  A
C41        C1300   1.482       .  S
C42          H45   1.084       .  S
C46          C47   1.403       .  A
C46          C51   1.408       .  A
C46        C1264   1.486   1_455  S
C47          C48   1.401       .  A
C47          H52   1.084       .  S
C48          C49   1.399       .  A
C48        C1249   1.475       .  S
C49          C50   1.398       .  A
C49          H53   1.084       .  S
C50          C51   1.402       .  A
C50        C1273   1.474       .  S
C51          H54   1.084       .  S
C55          C56   1.400       .  A
C55          C60   1.408       .  A
C55        C1237   1.478       .  S
C56          C57   1.399   1_554  A
C56          H61   1.084   1_554  S
C57          C58   1.399       .  A
C57        C1225   1.478       .  S
C58          C59   1.405   1_556  A
C58          H62   1.084       .  S
C59          C60   1.409       .  A
C59        C1393   1.487       .  S
C60          H63   1.083       .  S
C64          C65   1.407   1_556  A
C64          C69   1.405       .  A
C64        C1204   1.488       .  S
C65          C66   1.405       .  A
C65          H70   1.083       .  S
C66          C67   1.400       .  A
C66        C1216   1.486       .  S
C67          C68   1.401   1_554  A
C67          H71   1.084       .  S
C68          C69   1.404       .  A
C68        C1429   1.479       .  S
C69          H72   1.084       .  S
C73          C74   1.403       .  A
C73          C78   1.394       .  A
C73        C1180   1.474       .  S
C74          C75   1.409       .  A
C74          H79   1.084       .  S
C75          C76   1.405   1_565  A
C75        C1321   1.484   1_655  S
C76          C77   1.400       .  A
C76          H80   1.084       .  S
C77          C78   1.395   1_545  A
C77        C1189   1.467       .  S
C78          H81   1.085       .  S
C82          C83   1.406       .  A
C82          C87   1.401       .  A
C82        C1168   1.485   1_565  S
C83          C84   1.405       .  A
C83          H88   1.084   1_565  S
C84          C85   1.407       .  A
C84        C1360   1.489       .  S
C85          C86   1.405       .  A
C85          H89   1.084       .  S
C86          C87   1.399       .  A
C86        C1156   1.479       .  S
C87          H90   1.084       .  S
C91          C92   1.410       .  A
C91          C96   1.404       .  A
C91        C1132   1.490   1_455  S
C92          C93   1.406       .  A
C92          H97   1.084       .  S
C93          C94   1.399       .  A
C93        C1141   1.481       .  S
C94          C95   1.403       .  A
C94          H98   1.084       .  S
C95          C96   1.403       .  A
C95        C1285   1.482       .  S
C96          H99   1.084       .  S
C100        C101   1.398       .  A
C100        C105   1.399       .  A
C100       C1117   1.466       .  S
C101        C102   1.402       .  A
C101        H106   1.084       .  S
C102        C103   1.403       .  A
C102       C1252   1.479       .  S
C103        C104   1.404       .  A
C103        H107   1.084       .  S
C104        C105   1.400       .  A
C104       C1108   1.479       .  S
C105        H108   1.084       .  S
C109        C110   1.402       .  A
C109        C114   1.396       .  A
C109       C1096   1.472       .  S
C110        C111   1.406       .  A
C110        H115   1.084       .  S
C111        C112   1.405       .  A
C111       C1069   1.483       .  S
C112        C113   1.403       .  A
C112        H116   1.084       .  S
C113        C114   1.399       .  A
C113       C1084   1.477       .  S
C114        H117   1.085       .  S
C118        C119   1.404       .  A
C118        C123   1.399       .  A
C118       C1057   1.477       .  S
C119        C120   1.404       .  A
C119        H124   1.084       .  S
C120        C121   1.401       .  A
C120       C1036   1.481       .  S
C121        C122   1.400       .  A
C121        H125   1.084       .  S
C122        C123   1.398       .  A
C122       C1045   1.471       .  S
C123        H126   1.084       .  S
C127        C128   1.405       .  A
C127        C132   1.403       .  A
C127       C1021   1.486       .  S
C128        C129   1.403       .  A
C128        H133   1.083       .  S
C129        C130   1.400       .  A
C129        C997   1.482       .  S
C130        C131   1.397       .  A
C130        H134   1.084       .  S
C131        C132   1.399       .  A
C131       C1009   1.468       .  S
C132        H135   1.083       .  S
Zr136       O137   2.441       .  S
Zr136       O138   2.435       .  S
Zr136       O139   2.427       .  S
Zr136       O142   2.426       .  S
Zr136       O144   2.382       .  S
Zr136       O145   2.374       .  S
Zr136       O146   2.402       .  S
Zr136       O147   2.396       .  S
O137        H193   0.990       .  S
O137        H201   0.990       .  S
O138        C158   1.284       .  A
O139        C160   1.284       .  A
O140       Zr150   2.435       .  S
O140        C159   1.285       .  A
O141       Zr149   2.419       .  S
O141        C160   1.282       .  A
O142        C159   1.285       .  A
O143       Zr151   2.427       .  S
O143        C158   1.284       .  A
O144       Zr149   2.401       .  S
O144       Zr151   2.378       .  S
O145       Zr150   2.389       .  S
O145       Zr151   2.375       .  S
O145        H180   0.966       .  S
O146       Zr149   2.400       .  S
O146       Zr166   2.389       .  S
O146        H183   0.966       .  S
O147       Zr150   2.389       .  S
O147       Zr166   2.393       .  S
Zr148       O173   2.440       .  S
Zr148       O167   2.423       .  S
Zr148       O175   2.406       .  S
Zr148       O163   2.425       .  S
Zr148       O154   2.395       .  S
Zr148       O155   2.398       .  S
Zr148       O156   2.369       .  S
Zr148       O157   2.383       .  S
Zr149       O168   2.437       .  S
Zr149       O161   2.434       .  S
Zr149       O162   2.441       .  S
Zr149       O155   2.394       .  S
Zr149       O156   2.384       .  S
Zr150       O152   2.436       .  S
Zr150       O174   2.435       .  S
Zr150       O176   2.435       .  S
Zr150       O154   2.389       .  S
Zr150       O157   2.394       .  S
Zr151       O177   2.436       .  S
Zr151       O178   2.436       .  S
Zr151       O153   2.436       .  S
Zr151       O154   2.391       .  S
Zr151       O155   2.392       .  S
O152        H189   0.990       .  S
O153        H184   0.990       .  S
O153        H198   0.990       .  S
O155        H181   0.965       .  S
O156       Zr166   2.378       .  S
O157       Zr166   2.379       .  S
O157        H182   0.966       .  S
C158       C1201   1.500       .  S
C159       C1276   1.494       .  S
C160       C1348   1.489       .  S
O161        H197   0.990       .  S
O162        C164   1.285       .  A
O163        C164   1.283       .  A
C164        C985   1.497       .  S
O165       Zr166   2.439       .  S
O165        H194   0.990       .  S
Zr166       O169   2.437       .  S
Zr166       O170   2.439       .  S
Zr166       O171   2.419       .  S
O167        C172   1.282       .  A
O168        H185   0.990       .  S
O168        H200   0.990       .  S
O169        H186   0.990       .  S
O170        H190   0.990       .  S
O170        H199   0.990       .  S
O171        C172   1.283       .  A
C172       C1024   1.486       .  S
O173        H192   0.990       .  S
O173        H196   0.990       .  S
O174        H188   0.990       .  S
O174        H195   0.990       .  S
O175        C179   1.281       .  A
O176        C179   1.284       .  A
O177        H187   0.990       .  S
O178        H191   0.990       .  S
C179       C1081   1.490       .  S
C202        C203   1.398       .  A
C202        C207   1.411       .  A
C202        C961   1.481       .  S
C203        C204   1.395       .  A
C203        H208   1.085       .  S
C204        C205   1.400       .  A
C204        C973   1.475       .  S
C205        C206   1.404       .  A
C205        H209   1.084       .  S
C206        C207   1.411       .  A
C206        C949   1.487       .  S
C207        H210   1.083       .  S
C211        C212   1.403       .  A
C211        C216   1.397       .  A
C211        C940   1.473       .  S
C212        C213   1.407       .  A
C212        H217   1.084       .  S
C213        C214   1.402       .  A
C213        C988   1.481       .  S
C214        C215   1.402       .  A
C214        H218   1.084       .  S
C215        C216   1.398       .  A
C215        C925   1.473       .  S
C216        H219   1.084       .  S
Zr220       O221   2.441       .  S
Zr220       O222   2.434       .  S
Zr220       O223   2.428       .  S
Zr220       O226   2.413       .  S
Zr220       O228   2.377       .  S
Zr220       O229   2.381       .  S
Zr220       O230   2.405       .  S
Zr220       O231   2.396       .  S
O221        H277   0.990       .  S
O221        H285   0.990       .  S
O222        C242   1.282       .  A
O223        C244   1.283       .  A
O224       Zr234   2.425       .  S
O224        C243   1.283       .  A
O225       Zr233   2.439       .  S
O225        C244   1.285       .  A
O226        C243   1.280       .  A
O227       Zr235   2.412       .  S
O227        C242   1.281       .  A
O228       Zr233   2.398       .  S
O228       Zr235   2.386       .  S
O229       Zr234   2.391       .  S
O229       Zr235   2.378       .  S
O229        H264   0.966       .  S
O230       Zr233   2.397       .  S
O230       Zr250   2.387       .  S
O230        H267   0.965       .  S
O231       Zr234   2.385       .  S
O231       Zr250   2.382       .  S
Zr232       O257   2.443       .  S
Zr232       O251   2.436       .  S
Zr232       O259   2.431       .  S
Zr232       O247   2.430       .  S
Zr232       O238   2.399       .  S
Zr232       O239   2.403       .  S
Zr232       O240   2.380       .  S
Zr232       O241   2.380       .  S
Zr233       O252   2.435       .  S
Zr233       O245   2.431       .  S
Zr233       O246   2.436       .  S
Zr233       O239   2.399       .  S
Zr233       O240   2.396       .  S
Zr234       O236   2.436       .  S
Zr234       O258   2.434       .  S
Zr234       O260   2.425       .  S
Zr234       O238   2.395       .  S
Zr234       O241   2.396       .  S
Zr235       O261   2.437       .  S
Zr235       O262   2.436       .  S
Zr235       O237   2.436       .  S
Zr235       O238   2.390       .  S
Zr235       O239   2.389       .  S
O236        H273   0.990       .  S
O237        H268   0.990       .  S
O237        H282   0.990       .  S
O239        H265   0.965       .  S
O240       Zr250   2.381       .  S
O241       Zr250   2.377       .  S
O241        H266   0.966       .  S
C242       C1405   1.484       .  S
C243       C1192   1.468       .  S
C244       C1261   1.487       .  S
O245        H281   0.989       .  S
O246        C248   1.285       .  A
O247        C248   1.284       .  A
C248        C913   1.481       .  S
O249       Zr250   2.438       .  S
O249        H278   0.990       .  S
Zr250       O253   2.436       .  S
Zr250       O254   2.440       .  S
Zr250       O255   2.409       .  S
O251        C256   1.284       .  A
O252        H269   0.990       .  S
O252        H284   0.990       .  S
O253        H270   0.990       .  S
O254        H274   0.990       .  S
O254        H283   0.990       .  S
O255        C256   1.280       .  A
C256        C976   1.476       .  S
O257        H276   0.990       .  S
O257        H280   0.991       .  S
O258        H272   0.990       .  S
O258        H279   0.990       .  S
O259        C263   1.284       .  A
O260        C263   1.282       .  A
O261        H271   0.990       .  S
O262        H275   0.990       .  S
C263        C937   1.491       .  S
C286        C287   1.398       .  A
C286        C291   1.406       .  A
C286        C901   1.483       .  S
C287        C288   1.396       .  A
C287        H292   1.085       .  S
C288        C289   1.402       .  A
C288       C1000   1.478       .  S
C289        C290   1.409       .  A
C289        H293   1.082       .  S
C290        C291   1.411       .  A
C290        C892   1.497       .  S
C291        H294   1.083       .  S
Zr295       O296   2.441       .  S
Zr295       O297   2.432       .  S
Zr295       O298   2.433       .  S
Zr295       O301   2.428       .  S
Zr295       O303   2.382       .  S
Zr295       O304   2.380       .  S
Zr295       O305   2.407       .  S
Zr295       O306   2.397       .  S
O296        H352   0.991       .  S
O296        H360   0.990       .  S
O297        C317   1.282       .  A
O298        C319   1.285       .  A
O299       Zr309   2.446       .  S
O299        C318   1.288       .  A
O300       Zr308   2.435       .  S
O300        C319   1.286       .  A
O301        C318   1.284       .  A
O302       Zr310   2.422       .  S
O302        C317   1.281       .  A
O303       Zr308   2.400       .  S
O303       Zr310   2.375       .  S
O304       Zr309   2.389       .  S
O304       Zr310   2.378       .  S
O304        H339   0.965       .  S
O305       Zr308   2.405       .  S
O305       Zr325   2.390       .  S
O305        H342   0.966       .  S
O306       Zr309   2.392       .  S
O306       Zr325   2.392       .  S
Zr307       O332   2.440       .  S
Zr307       O326   2.453       .  S
Zr307       O334   2.407       .  S
Zr307       O322   2.421       .  S
Zr307       O313   2.401       .  S
Zr307       O314   2.401       .  S
Zr307       O315   2.368       .  S
Zr307       O316   2.381       .  S
Zr308       O327   2.431       .  S
Zr308       O320   2.434       .  S
Zr308       O321   2.459       .  S
Zr308       O314   2.392       .  S
Zr308       O315   2.383       .  S
Zr309       O311   2.434       .  S
Zr309       O333   2.436       .  S
Zr309       O335   2.436       .  S
Zr309       O313   2.394       .  S
Zr309       O316   2.394       .  S
Zr310       O336   2.435       .  S
Zr310       O337   2.438       .  S
Zr310       O312   2.437       .  S
Zr310       O313   2.397       .  S
Zr310       O314   2.391       .  S
O311        H348   0.990       .  S
O312        H343   0.990       .  S
O312        H357   0.990       .  S
O314        H340   0.965       .  S
O315       Zr325   2.376       .  S
O316       Zr325   2.372       .  S
O316        H341   0.965       .  S
C317        C904   1.471       .  S
C318        C877   1.494       .  S
C319       C1093   1.484       .  S
O320        H356   0.990       .  S
O321        C323   1.291       .  A
O322        C323   1.282       .  A
C323       C1144   1.498       .  S
O324       Zr325   2.438       .  S
O324        H353   0.990       .  S
Zr325       O328   2.436       .  S
Zr325       O329   2.438       .  S
Zr325       O330   2.421       .  S
O326        C331   1.288       .  A
O327        H344   0.990       .  S
O327        H359   0.989       .  S
O328        H345   0.990       .  S
O329        H349   0.990       .  S
O329        H358   0.990       .  S
O330        C331   1.282       .  A
C331       C1444   1.483       .  S
O332        H351   0.990       .  S
O332        H355   0.989       .  S
O333        H347   0.990       .  S
O333        H354   0.990       .  S
O334        C338   1.282       .  A
O335        C338   1.285       .  A
O336        H346   0.990       .  S
O337        H350   0.990       .  S
C338       C1336   1.491       .  S
C361        C362   1.396       .  A
C361        C366   1.399       .  A
C361        C916   1.470       .  S
C362        C363   1.400       .  A
C362        H367   1.085       .  S
C363        C364   1.405       .  A
C363        C868   1.479       .  S
C364        C365   1.406       .  A
C364        H368   1.084       .  S
C365        C366   1.405       .  A
C365       C1072   1.485       .  S
C366        H369   1.084       .  S
C370        C371   1.417       .  A
C370        C375   1.410       .  A
C370        C853   1.504       .  S
C371        C372   1.408       .  A
C371        H376   1.083       .  S
C372        C373   1.397       .  A
C372        C880   1.485       .  S
C373        C374   1.399       .  A
C373        H377   1.085       .  S
C374        C375   1.405       .  A
C374        C841   1.482       .  S
C375        H378   1.083       .  S
C379        C380   1.410       .  A
C379        C384   1.394       .  A
C379        C829   1.480       .  S
C380        C381   1.409       .  A
C380        H385   1.083       .  S
C381        C382   1.406       .  A
C381        C952   1.488       .  S
C382        C383   1.402       .  A
C382        H386   1.084       .  S
C383        C384   1.395       .  A
C383        C817   1.471       .  S
C384        H387   1.085       .  S
Zr388       O389   2.440       .  S
Zr388       O390   2.430       .  S
Zr388       O391   2.450       .  S
Zr388       O394   2.430       .  S
Zr388       O396   2.379       .  S
Zr388       O397   2.387       .  S
Zr388       O398   2.407       .  S
Zr388       O399   2.402       .  S
O389        H445   0.990       .  S
O389        H453   0.988       .  S
O390        C410   1.281       .  A
O391        C412   1.287       .  A
O392       Zr402   2.425       .  S
O392        C411   1.282       .  A
O393       Zr401   2.457       .  S
O393        C412   1.289       .  A
O394        C411   1.284       .  A
O395       Zr403   2.402       .  S
O395        C410   1.278       .  A
O396       Zr401   2.400       .  S
O396       Zr403   2.387       .  S
O397       Zr402   2.394       .  S
O397       Zr403   2.377       .  S
O397        H432   0.965       .  S
O398       Zr401   2.400       .  S
O398       Zr418   2.390       .  S
O398        H435   0.965       .  S
O399       Zr402   2.390       .  S
O399       Zr418   2.394       .  S
Zr400       O425   2.441       .  S
Zr400       O419   2.441       .  S
Zr400       O427   2.450       .  S
Zr400       O415   2.427       .  S
Zr400       O406   2.398       .  S
Zr400       O407   2.409       .  S
Zr400       O408   2.385       .  S
Zr400       O409   2.380       .  S
Zr401       O420   2.436       .  S
Zr401       O413   2.432       .  S
Zr401       O414   2.437       .  S
Zr401       O407   2.403       .  S
Zr401       O408   2.400       .  S
Zr402       O404   2.437       .  S
Zr402       O426   2.438       .  S
Zr402       O428   2.427       .  S
Zr402       O406   2.393       .  S
Zr402       O409   2.390       .  S
Zr403       O429   2.435       .  S
Zr403       O430   2.438       .  S
Zr403       O405   2.437       .  S
Zr403       O406   2.392       .  S
Zr403       O407   2.377       .  S
O404        H441   0.990       .  S
O405        H436   0.990       .  S
O405        H450   0.990       .  S
O407        H433   0.965       .  S
O408       Zr418   2.375       .  S
O409       Zr418   2.381       .  S
O409        H434   0.968       .  S
C410        C820   1.476       .  S
C411        C865   1.491       .  S
C412        C856   1.500       .  S
O413        H449   0.989       .  S
O414        C416   1.286       .  A
O415        C416   1.284       .  A
C416       C1177   1.471       .  S
O417       Zr418   2.439       .  S
O417        H446   0.990       .  S
Zr418       O421   2.438       .  S
Zr418       O422   2.439       .  S
Zr418       O423   2.416       .  S
O419        C424   1.285       .  A
O420        H437   0.990       .  S
O420        H452   0.990       .  S
O421        H438   0.990       .  S
O422        H442   0.990       .  S
O422        H451   0.990       .  S
O423        C424   1.282       .  A
C424       C1228   1.483       .  S
O425        H444   0.990       .  S
O425        H448   0.990       .  S
O426        H440   0.990       .  S
O426        H447   0.990       .  S
O427        C431   1.288       .  A
O428        C431   1.283       .  A
O429        H439   0.990       .  S
O430        H443   0.990       .  S
C431       C1129   1.499       .  S
C454        C455   1.401       .  A
C454        C459   1.395       .  A
C454        C805   1.476       .  S
C455        C456   1.404       .  A
C455        H460   1.084       .  S
C456        C457   1.409       .  A
C456        C796   1.486       .  S
C457        C458   1.407       .  A
C457        H461   1.083       .  S
C458        C459   1.399       .  A
C458        C928   1.481       .  S
C459        H462   1.084       .  S
Zr463       O464   2.443       .  S
Zr463       O465   2.440       .  S
Zr463       O466   2.450       .  S
Zr463       O469   2.413       .  S
Zr463       O471   2.375       .  S
Zr463       O472   2.391       .  S
Zr463       O473   2.408       .  S
Zr463       O474   2.403       .  S
O464        H520   0.990       .  S
O464        H528   0.990       .  S
O465        C485   1.283       .  A
O466        C487   1.286       .  A
O467       Zr477   2.458       .  S
O467        C486   1.289       .  A
O468       Zr476   2.449       .  S
O468        C487   1.287       .  A
O469        C486   1.280       .  A
O470       Zr478   2.414       .  S
O470        C485   1.279       .  A
O471       Zr476   2.408       .  S
O471       Zr478   2.384       .  S
O472       Zr477   2.408       .  S
O472       Zr478   2.376       .  S
O472        H507   0.971       .  S
O473       Zr476   2.410       .  S
O473       Zr493   2.392       .  S
O473        H510   0.964       .  S
O474       Zr477   2.391       .  S
O474       Zr493   2.375       .  S
Zr475       O500   2.439       .  S
Zr475       O494   2.456       .  S
Zr475       O502   2.428       .  S
Zr475       O490   2.432       .  S
Zr475       O481   2.402       .  S
Zr475       O482   2.411       .  S
Zr475       O483   2.377       .  S
Zr475       O484   2.384       .  S
Zr476       O495   2.435       .  S
Zr476       O488   2.435       .  S
Zr476       O489   2.463       .  S
Zr476       O482   2.406       .  S
Zr476       O483   2.397       .  S
Zr477       O479   2.436       .  S
Zr477       O501   2.437       .  S
Zr477       O503   2.463       .  S
Zr477       O481   2.391       .  S
Zr477       O484   2.402       .  S
Zr478       O504   2.437       .  S
Zr478       O505   2.436       .  S
Zr478       O480   2.436       .  S
Zr478       O481   2.394       .  S
Zr478       O482   2.378       .  S
O479        H516   0.990       .  S
O480        H511   0.989       .  S
O480        H525   0.990       .  S
O482        H508   0.964       .  S
O483       Zr493   2.386       .  S
O484       Zr493   2.383       .  S
O484        H509   0.976       .  S
C485        C793   1.493       .  S
C486        C964   1.469       .  S
C487        C781   1.492       .  S
O488        H524   0.990       .  S
O489        C491   1.291       .  A
O490        C491   1.283       .  A
C491       C1420   1.491       .  S
O492       Zr493   2.439       .  S
O492        H521   0.990       .  S
Zr493       O496   2.435       .  S
Zr493       O497   2.443       .  S
Zr493       O498   2.398       .  S
O494        C499   1.286       .  A
O495        H512   0.990       .  S
O495        H527   0.990       .  S
O496        H513   0.990       .  S
O497        H517   0.990       .  S
O497        H526   0.990       .  S
O498        C499   1.278       .  A
C499       C1105   1.480       .  S
O500        H519   0.990       .  S
O500        H523   0.989       .  S
O501        H515   0.990       .  S
O501        H522   0.990       .  S
O502        C506   1.284       .  A
O503        C506   1.290       .  A
O504        H514   0.990       .  S
O505        H518   0.990       .  S
C506       C1384   1.499       .  S
C529        C530   1.398       .  A
C529        C534   1.398       .  A
C529        C760   1.467       .  S
C530        C531   1.398       .  A
C530        H535   1.084       .  S
C531        C532   1.403       .  A
C531        C769   1.478       .  S
C532        C533   1.405       .  A
C532        H536   1.084       .  S
C533        C534   1.405       .  A
C533        C844   1.484       .  S
C534        H537   1.084       .  S
C538        C539   1.415       .  A
C538        C543   1.406       .  A
C538        C784   1.498       .  S
C539        C540   1.413       .  A
C539        H544   1.083       .  S
C540        C541   1.403       .  A
C540        C745   1.494       .  S
C541        C542   1.399       .  A
C541        H545   1.084       .  S
C542        C543   1.401       .  A
C542       C1033   1.481       .  S
C543        H546   1.083       .  S
Zr547       O548   2.443       .  S
Zr547       O549   2.454       .  S
Zr547       O550   2.453       .  S
Zr547       O553   2.417       .  S
Zr547       O555   2.377       .  S
Zr547       O556   2.388       .  S
Zr547       O557   2.417       .  S
Zr547       O558   2.406       .  S
O548        H604   0.990       .  S
O548        H612   0.989       .  S
O549        C569   1.285       .  A
O550        C571   1.287       .  A
O551       Zr561   2.462       .  S
O551        C570   1.290       .  A
O552       Zr560   2.460       .  S
O552        C571   1.289       .  A
O553        C570   1.281       .  A
O554       Zr562   2.396       .  S
O554        C569   1.277       .  A
O555       Zr560   2.406       .  S
O555       Zr562   2.386       .  S
O556       Zr561   2.398       .  S
O556       Zr562   2.384       .  S
O556        H591   0.966       .  S
O557       Zr560   2.405       .  S
O557       Zr577   2.383       .  S
O557        H594   0.963       .  S
O558       Zr561   2.388       .  S
O558       Zr577   2.384       .  S
Zr559       O584   2.443       .  S
Zr559       O578   2.445       .  S
Zr559       O586   2.427       .  S
Zr559       O574   2.411       .  S
Zr559       O565   2.394       .  S
Zr559       O566   2.412       .  S
Zr559       O567   2.380       .  S
Zr559       O568   2.378       .  S
Zr560       O579   2.436       .  S
Zr560       O572   2.433       .  S
Zr560       O573   2.462       .  S
Zr560       O566   2.408       .  S
Zr560       O567   2.404       .  S
Zr561       O563   2.436       .  S
Zr561       O585   2.438       .  S
Zr561       O587   2.454       .  S
Zr561       O565   2.396       .  S
Zr561       O568   2.398       .  S
Zr562       O588   2.434       .  S
Zr562       O589   2.436       .  S
Zr562       O564   2.438       .  S
Zr562       O565   2.392       .  S
Zr562       O566   2.379       .  S
O563        H600   0.990       .  S
O564        H595   0.990       .  S
O564        H609   0.990       .  S
O566        H592   0.964       .  S
O567       Zr577   2.378       .  S
O568       Zr577   2.377       .  S
O568        H593   0.966       .  S
C569       C1297   1.480       .  S
C570       C1240   1.480       .  S
C571       C1372   1.496       .  S
O572        H608   0.989       .  S
O573        C575   1.290       .  A
O574        C575   1.280       .  A
C575        C832   1.493       .  S
O576       Zr577   2.435       .  S
O576        H605   0.990       .  S
Zr577       O580   2.436       .  S
Zr577       O581   2.439       .  S
Zr577       O582   2.401       .  S
O578        C583   1.284       .  A
O579        H596   0.991       .  S
O579        H611   0.990       .  S
O580        H597   0.990       .  S
O581        H601   0.990       .  S
O581        H610   0.990       .  S
O582        C583   1.279       .  A
C583        C772   1.487       .  S
O584        H603   0.991       .  S
O584        H607   0.990       .  S
O585        H599   0.990       .  S
O585        H606   0.990       .  S
O586        C590   1.283       .  A
O587        C590   1.287       .  A
O588        H598   0.990       .  S
O589        H602   0.990       .  S
C590        C748   1.492       .  S
Zr613       O614   2.440       .  S
Zr613       O615   2.435       .  S
Zr613       O616   2.426       .  S
Zr613       O619   2.410       .  S
Zr613       O621   2.380       .  S
Zr613       O622   2.375       .  S
Zr613       O623   2.401       .  S
Zr613       O624   2.400       .  S
O614        H670   0.989       .  S
O614        H678   0.990       .  S
O615        C635   1.286       .  A
O616        C637   1.282       .  A
O617       Zr627   2.434       .  S
O617        C636   1.285       .  A
O618       Zr626   2.441       .  S
O618        C637   1.287       .  A
O619        C636   1.281       .  A
O620       Zr628   2.434       .  S
O620        C635   1.283       .  A
O621       Zr626   2.399       .  S
O621       Zr628   2.383       .  S
O622       Zr627   2.393       .  S
O622       Zr628   2.374       .  S
O622        H657   0.966       .  S
O623       Zr626   2.398       .  S
O623       Zr643   2.393       .  S
O623        H660   0.966       .  S
O624       Zr627   2.391       .  S
O624       Zr643   2.393       .  S
Zr625       O650   2.441       .  S
Zr625       O644   2.446       .  S
Zr625       O652   2.418       .  S
Zr625       O640   2.408       .  S
Zr625       O631   2.394       .  S
Zr625       O632   2.405       .  S
Zr625       O633   2.370       .  S
Zr625       O634   2.375       .  S
Zr626       O645   2.436       .  S
Zr626       O638   2.435       .  S
Zr626       O639   2.442       .  S
Zr626       O632   2.402       .  S
Zr626       O633   2.391       .  S
Zr627       O629   2.437       .  S
Zr627       O651   2.439       .  S
Zr627       O653   2.436       .  S
Zr627       O631   2.391       .  S
Zr627       O634   2.398       .  S
Zr628       O654   2.437       .  S
Zr628       O655   2.435       .  S
Zr628       O630   2.436       .  S
Zr628       O631   2.394       .  S
Zr628       O632   2.400       .  S
O629        H666   0.990       .  S
O630        H661   0.990       .  S
O630        H675   0.990       .  S
O632        H658   0.967       .  S
O633       Zr643   2.373       .  S
O634       Zr643   2.380       .  S
O634        H659   0.968       .  S
C635       C1456   1.499       .  S
C636       C1312   1.470       .  S
C637       C1153   1.493       .  S
O638        H674   0.990       .  S
O639        C641   1.286       .  A
O640        C641   1.279       .  A
C641        C757   1.484       .  S
O642       Zr643   2.437       .  S
O642        H671   0.990       .  S
Zr643       O646   2.437       .  S
Zr643       O647   2.438       .  S
Zr643       O648   2.418       .  S
O644        C649   1.286       .  A
O645        H662   0.990       .  S
O645        H677   0.990       .  S
O646        H663   0.990       .  S
O647        H667   0.990       .  S
O647        H676   0.990       .  S
O648        C649   1.280       .  A
C649        C889   1.476       .  S
O650        H669   0.990       .  S
O650        H673   0.989       .  S
O651        H665   0.990       .  S
O651        H672   0.990       .  S
O652        C656   1.284       .  A
O653        C656   1.284       .  A
O654        H664   0.990       .  S
O655        H668   0.990       .  S
C656       C1060   1.494       .  S
Zr679       O680   2.438       .  S
Zr679       O681   2.427       .  S
Zr679       O682   2.415       .  S
Zr679       O685   2.395       .  S
Zr679       O687   2.374       .  S
Zr679       O688   2.376       .  S
Zr679       O689   2.397       .  S
Zr679       O690   2.397       .  S
O680        H736   0.990       .  S
O680        H744   0.990       .  S
O681        C701   1.282       .  A
O682        C703   1.281       .  A
O683       Zr693   2.440       .  S
O683        C702   1.285       .  A
O684       Zr692   2.432       .  S
O684        C703   1.285       .  A
O685        C702   1.279       .  A
O686       Zr694   2.420       .  S
O686        C701   1.283       .  A
O687       Zr692   2.389       .  S
O687       Zr694   2.373       .  S
O688       Zr693   2.382       .  S
O688       Zr694   2.367       .  S
O688        H723   0.965       .  S
O689       Zr692   2.398       .  S
O689       Zr709   2.400       .  S
O689        H726   0.965       .  S
O690       Zr693   2.392       .  S
O690       Zr709   2.396       .  S
Zr691       O716   2.439       .  S
Zr691       O710   2.429       .  S
Zr691       O718   2.411       .  S
Zr691       O706   2.409       .  S
Zr691       O697   2.396       .  S
Zr691       O698   2.398       .  S
Zr691       O699   2.373       .  S
Zr691       O700   2.376       .  S
Zr692       O711   2.436       .  S
Zr692       O704   2.433       .  S
Zr692       O705   2.428       .  S
Zr692       O698   2.398       .  S
Zr692       O699   2.392       .  S
Zr693       O695   2.435       .  S
Zr693       O717   2.437       .  S
Zr693       O719   2.436       .  S
Zr693       O697   2.390       .  S
Zr693       O700   2.392       .  S
Zr694       O720   2.436       .  S
Zr694       O721   2.435       .  S
Zr694       O696   2.436       .  S
Zr694       O697   2.395       .  S
Zr694       O698   2.387       .  S
O695        H732   0.990       .  S
O696        H727   0.990       .  S
O696        H741   0.990       .  S
O698        H724   0.965       .  S
O699       Zr709   2.377       .  S
O700       Zr709   2.377       .  S
O700        H725   0.963       .  S
C701       C1012   1.489       .  S
C702        C808   1.463       .  S
C703       C1048   1.485       .  S
O704        H740   0.990       .  S
O705        C707   1.283       .  A
O706        C707   1.281       .  A
C707       C1120   1.471       .  S
O708       Zr709   2.440       .  S
O708        H737   0.990       .  S
Zr709       O712   2.438       .  S
Zr709       O713   2.441       .  S
Zr709       O714   2.431       .  S
O710        C715   1.283       .  A
O711        H728   0.990       .  S
O711        H743   0.990       .  S
O712        H729   0.990       .  S
O713        H733   0.989       .  S
O713        H742   0.990       .  S
O714        C715   1.283       .  A
C715       C1213   1.478       .  S
O716        H735   0.990       .  S
O716        H739   0.990       .  S
O717        H731   0.990       .  S
O717        H738   0.990       .  S
O718        C722   1.282       .  A
O719        C722   1.285       .  A
O720        H730   0.991       .  S
O721        H734   0.990       .  S
C722       C1165   1.494       .  S
C745        C746   1.406       .  A
C745        C750   1.413       .  A
C746        C747   1.400       .  A
C746        H751   1.085       .  S
C747        C748   1.415       .  A
C747        C754   1.446       .  S
C748        C749   1.408       .  A
C749        C750   1.409       .  A
C749        H752   1.084       .  S
C750        C753   1.443       .  S
C753        N755   1.157       .  T
C754        N756   1.158       .  T
C757        C758   1.409       .  A
C757        C762   1.421       .  A
C758        C759   1.403       .  A
C758        H763   1.084       .  S
C759        C760   1.407       .  A
C759        C766   1.444       .  S
C760        C761   1.394       .  A
C761        C762   1.392       .  A
C761        H764   1.086       .  S
C762        C765   1.445       .  S
C765        N767   1.157       .  T
C766        N768   1.157       .  T
C769        C770   1.402       .  A
C769        C774   1.408       .  A
C770        C771   1.400       .  A
C770        H775   1.085       .  S
C771        C772   1.416       .  A
C771        C778   1.441       .  S
C772        C773   1.409       .  A
C773        C774   1.397       .  A
C773        H776   1.085       .  S
C774        C777   1.445       .  S
C777        N779   1.157       .  T
C778        N780   1.156       .  T
C781        C782   1.404       .  A
C781        C786   1.416       .  A
C782        C783   1.406       .  A
C782        H787   1.085       .  S
C783        C784   1.418       .  A
C783        C790   1.444       .  S
C784        C785   1.404       .  A
C785        C786   1.404       .  A
C785        H788   1.084       .  S
C786        C789   1.444       .  S
C789        N791   1.157       .  T
C790        N792   1.157       .  T
C793        C794   1.409       .  A
C793        C798   1.418       .  A
C794        C795   1.403       .  A
C794        H799   1.084       .  S
C795        C796   1.410       .  A
C795        C802   1.442       .  S
C796        C797   1.402       .  A
C797        C798   1.398       .  A
C797        H800   1.085       .  S
C798        C801   1.443       .  S
C801        N803   1.157       .  T
C802        N804   1.157       .  T
C805        C806   1.405       .  A
C805        C810   1.412       .  A
C806        C807   1.400       .  A
C806        H811   1.085       .  S
C807        C808   1.406       .  A
C807        C814   1.444       .  S
C808        C809   1.401       .  A
C809        C810   1.395       .  A
C809        H812   1.085       .  S
C810        C813   1.445       .  S
C813        N815   1.157       .  T
C814        N816   1.157       .  T
C817        C818   1.403       .  A
C817        C822   1.406       .  A
C818        C819   1.399       .  A
C818        H823   1.085       .  S
C819        C820   1.414       .  A
C819        C826   1.445       .  S
C820        C821   1.406       .  A
C821        C822   1.395       .  A
C821        H824   1.085       .  S
C822        C825   1.444       .  S
C825        N827   1.157       .  T
C826        N828   1.158       .  T
C829        C830   1.406       .  A
C829        C834   1.404       .  A
C830        C831   1.405       .  A
C830        H835   1.085       .  S
C831        C832   1.416       .  A
C831        C838   1.443       .  S
C832        C833   1.411       .  A
C833        C834   1.395       .  A
C833        H836   1.081       .  S
C834        C837   1.445       .  S
C837        N839   1.157       .  T
C838        N840   1.157       .  T
C841        C842   1.404       .  A
C841        C846   1.411       .  A
C842        C843   1.400       .  A
C842        H847   1.085       .  S
C843        C844   1.413       .  A
C843        C850   1.445       .  S
C844        C845   1.405       .  A
C845        C846   1.399       .  A
C845        H848   1.085       .  S
C846        C849   1.444       .  S
C849        N851   1.157       .  T
C850        N852   1.157       .  T
C853        C854   1.404       .  A
C853        C858   1.419       .  A
C854        C855   1.401       .  A
C854        H859   1.084       .  S
C855        C856   1.417       .  A
C855        C862   1.443       .  S
C856        C857   1.408       .  A
C857        C858   1.411       .  A
C857        H860   1.084       .  S
C858        C861   1.444       .  S
C861        N863   1.157       .  T
C862        N864   1.157       .  T
C865        C866   1.409       .  A
C865        C870   1.419       .  A
C866        C867   1.399       .  A
C866        H871   1.084       .  S
C867        C868   1.409       .  A
C867        C874   1.445       .  S
C868        C869   1.401       .  A
C869        C870   1.399       .  A
C869        H872   1.085       .  S
C870        C873   1.444       .  S
C873        N875   1.157       .  T
C874        N876   1.157       .  T
C877        C878   1.409       .  A
C877        C882   1.418       .  A
C878        C879   1.408       .  A
C878        H883   1.084       .  S
C879        C880   1.409       .  A
C879        C886   1.443       .  S
C880        C881   1.401       .  A
C881        C882   1.400       .  A
C881        H884   1.085       .  S
C882        C885   1.445       .  S
C885        N887   1.157       .  T
C886        N888   1.157       .  T
C889        C890   1.400       .  A
C889        C894   1.409       .  A
C890        C891   1.402       .  A
C890        H895   1.085       .  S
C891        C892   1.420       .  A
C891        C898   1.444       .  S
C892        C893   1.408       .  A
C893        C894   1.402       .  A
C893        H896   1.084       .  S
C894        C897   1.444       .  S
C897        N899   1.157       .  T
C898        N900   1.157       .  T
C901        C902   1.406       .  A
C901        C906   1.412       .  A
C902        C903   1.396       .  A
C902        H907   1.085       .  S
C903        C904   1.407       .  A
C903        C910   1.444       .  S
C904        C905   1.403       .  A
C905        C906   1.402       .  A
C905        H908   1.084       .  S
C906        C909   1.444       .  S
C909        N911   1.157       .  T
C910        N912   1.157       .  T
C913        C914   1.407       .  A
C913        C918   1.417       .  A
C914        C915   1.400       .  A
C914        H919   1.085       .  S
C915        C916   1.407       .  A
C915        C922   1.445       .  S
C916        C917   1.397       .  A
C917        C918   1.399       .  A
C917        H920   1.085       .  S
C918        C921   1.443       .  S
C921        N923   1.157       .  T
C922        N924   1.157       .  T
C925        C926   1.402       .  A
C925        C930   1.406       .  A
C926        C927   1.398       .  A
C926        H931   1.085       .  S
C927        C928   1.411       .  A
C927        C934   1.442       .  S
C928        C929   1.407       .  A
C929        C930   1.398       .  A
C929        H932   1.085       .  S
C930        C933   1.444       .  S
C933        N935   1.157       .  T
C934        N936   1.157       .  T
C937        C938   1.408       .  A
C937        C942   1.420       .  A
C938        C939   1.394       .  A
C938        H943   1.084       .  S
C939        C940   1.406       .  A
C939        C946   1.444       .  S
C940        C941   1.400       .  A
C941        C942   1.404       .  A
C941        H944   1.085       .  S
C942        C945   1.443       .  S
C945        N947   1.157       .  T
C946        N948   1.157       .  T
C949        C950   1.404       .  A
C949        C954   1.412       .  A
C950        C951   1.401       .  A
C950        H955   1.085       .  S
C951        C952   1.412       .  A
C951        C958   1.443       .  S
C952        C953   1.406       .  A
C953        C954   1.407       .  A
C953        H956   1.085       .  S
C954        C957   1.443       .  S
C957        N959   1.157       .  T
C958        N960   1.157       .  T
C961        C962   1.404       .  A
C961        C966   1.411       .  A
C962        C963   1.398       .  A
C962        H967   1.085       .  S
C963        C964   1.408       .  A
C963        C970   1.445       .  S
C964        C965   1.404       .  A
C965        C966   1.404       .  A
C965        H968   1.085       .  S
C966        C969   1.443       .  S
C969        N971   1.157       .  T
C970        N972   1.157       .  T
C973        C974   1.403       .  A
C973        C978   1.408       .  A
C974        C975   1.400       .  A
C974        H979   1.085       .  S
C975        C976   1.413       .  A
C975        C982   1.444       .  S
C976        C977   1.405       .  A
C977        C978   1.398       .  A
C977        H980   1.085       .  S
C978        C981   1.445       .  S
C981        N983   1.157       .  T
C982        N984   1.157       .  T
C985        C986   1.411       .  A
C985        C990   1.420       .  A
C986        C987   1.396       .  A
C986        H991   1.083       .  S
C987        C988   1.407       .  A
C987        C994   1.445       .  S
C988        C989   1.403       .  A
C989        C990   1.406       .  A
C989        H992   1.085       .  S
C990        C993   1.444       .  S
C993        N995   1.157       .  T
C994        N996   1.157       .  T
C997        C998   1.407       .  A
C997       C1002   1.413       .  A
C998        C999   1.401       .  A
C998       H1003   1.085       .  S
C999       C1000   1.408       .  A
C999       C1006   1.443       .  S
C1000      C1001   1.403       .  A
C1001      C1002   1.395       .  A
C1001      H1004   1.085       .  S
C1002      C1005   1.445       .  S
C1005      N1007   1.157       .  T
C1006      N1008   1.157       .  T
C1009      C1010   1.398       .  A
C1009      C1014   1.405       .  A
C1010      C1011   1.402       .  A
C1010      H1015   1.085       .  S
C1011      C1012   1.421       .  A
C1011      C1018   1.443       .  S
C1012      C1013   1.409       .  A
C1013      C1014   1.394       .  A
C1013      H1016   1.084       .  S
C1014      C1017   1.445       .  S
C1017      N1019   1.157       .  T
C1018      N1020   1.157       .  T
C1021      C1022   1.404       .  A
C1021      C1026   1.415       .  A
C1022      C1023   1.398       .  A
C1022      H1027   1.085       .  S
C1023      C1024   1.416       .  A
C1023      C1030   1.444       .  S
C1024      C1025   1.406       .  A
C1025      C1026   1.398       .  A
C1025      H1028   1.085       .  S
C1026      C1029   1.445       .  S
C1029      N1031   1.157       .  T
C1030      N1032   1.157       .  T
C1033      C1034   1.404       .  A
C1033      C1038   1.412       .  A
C1034      C1035   1.400       .  A
C1034      H1039   1.085       .  S
C1035      C1036   1.411       .  A
C1035      C1042   1.444       .  S
C1036      C1037   1.404       .  A
C1037      C1038   1.399       .  A
C1037      H1040   1.085       .  S
C1038      C1041   1.444       .  S
C1041      N1043   1.157       .  T
C1042      N1044   1.157       .  T
C1045      C1046   1.398       .  A
C1045      C1050   1.407       .  A
C1046      C1047   1.396       .  A
C1046      H1051   1.085       .  S
C1047      C1048   1.419       .  A
C1047      C1054   1.444       .  S
C1048      C1049   1.409       .  A
C1049      C1050   1.399       .  A
C1049      H1052   1.084       .  S
C1050      C1053   1.444       .  S
C1053      N1055   1.157       .  T
C1054      N1056   1.157       .  T
C1057      C1058   1.402       .  A
C1057      C1062   1.406       .  A
C1058      C1059   1.403       .  A
C1058      H1063   1.085       .  S
C1059      C1060   1.421       .  A
C1059      C1066   1.444       .  S
C1060      C1061   1.410       .  A
C1061      C1062   1.394       .  A
C1061      H1064   1.084       .  S
C1062      C1065   1.445       .  S
C1065      N1067   1.157       .  T
C1066      N1068   1.157       .  T
C1069      C1070   1.403       .  A
C1069      C1074   1.412       .  A
C1070      C1071   1.398       .  A
C1070      H1075   1.085       .  S
C1071      C1072   1.414       .  A
C1071      C1078   1.445       .  S
C1072      C1073   1.405       .  A
C1073      C1074   1.403       .  A
C1073      H1076   1.085       .  S
C1074      C1077   1.444       .  S
C1077      N1079   1.157       .  T
C1078      N1080   1.157       .  T
C1081      C1082   1.411       .  A
C1081      C1086   1.419       .  A
C1082      C1083   1.395       .  A
C1082      H1087   1.084       .  S
C1083      C1084   1.408       .  A
C1083      C1090   1.445       .  S
C1084      C1085   1.402       .  A
C1085      C1086   1.399       .  A
C1085      H1088   1.085       .  S
C1086      C1089   1.443       .  S
C1089      N1091   1.157       .  T
C1090      N1092   1.157       .  T
C1093      C1094   1.407       .  A
C1093      C1098   1.417       .  A
C1094      C1095   1.398       .  A
C1094      H1099   1.085       .  S
C1095      C1096   1.407       .  A
C1095      C1102   1.444       .  S
C1096      C1097   1.399       .  A
C1097      C1098   1.401       .  A
C1097      H1100   1.085       .  S
C1098      C1101   1.442       .  S
C1101      N1103   1.157       .  T
C1102      N1104   1.157       .  T
C1105      C1106   1.405       .  A
C1105      C1110   1.416       .  A
C1106      C1107   1.406   1_655  A
C1106      H1111   1.084       .  S
C1107      C1108   1.414       .  A
C1107      C1114   1.444       .  S
C1108      C1109   1.397   1_455  A
C1109      C1110   1.393       .  A
C1109      H1112   1.085       .  S
C1110      C1113   1.444       .  S
C1113      N1115   1.157       .  T
C1114      N1116   1.157       .  T
C1117      C1118   1.402       .  A
C1117      C1122   1.406       .  A
C1118      C1119   1.401       .  A
C1118      H1123   1.085       .  S
C1119      C1120   1.413       .  A
C1119      C1126   1.444       .  S
C1120      C1121   1.403       .  A
C1121      C1122   1.391       .  A
C1121      H1124   1.085       .  S
C1122      C1125   1.444       .  S
C1125      N1127   1.157       .  T
C1126      N1128   1.157       .  T
C1129      C1130   1.408       .  A
C1129      C1134   1.421       .  A
C1130      C1131   1.401       .  A
C1130      H1135   1.084       .  S
C1131      C1132   1.411       .  A
C1131      C1138   1.444   1_655  S
C1132      C1133   1.404       .  A
C1133      C1134   1.406       .  A
C1133      H1136   1.085       .  S
C1134      C1137   1.445       .  S
C1137      N1139   1.158       .  T
C1138      N1140   1.157       .  T
C1141      C1142   1.397       .  A
C1141      C1146   1.409       .  A
C1142      C1143   1.398       .  A
C1142      H1147   1.086       .  S
C1143      C1144   1.423       .  A
C1143      C1150   1.445       .  S
C1144      C1145   1.411       .  A
C1145      C1146   1.407       .  A
C1145      H1148   1.084       .  S
C1146      C1149   1.443       .  S
C1149      N1151   1.157       .  T
C1150      N1152   1.157       .  T
C1153      C1154   1.409       .  A
C1153      C1158   1.421       .  A
C1154      C1155   1.400       .  A
C1154      H1159   1.084       .  S
C1155      C1156   1.409       .  A
C1155      C1162   1.444       .  S
C1156      C1157   1.399       .  A
C1157      C1158   1.401       .  A
C1157      H1160   1.085       .  S
C1158      C1161   1.444       .  S
C1161      N1163   1.157       .  T
C1162      N1164   1.157       .  T
C1165      C1166   1.410       .  A
C1165      C1170   1.419       .  A
C1166      C1167   1.397       .  A
C1166      H1171   1.084       .  S
C1167      C1168   1.410       .  A
C1167      C1174   1.445       .  S
C1168      C1169   1.404       .  A
C1169      C1170   1.401       .  A
C1169      H1172   1.085       .  S
C1170      C1173   1.444       .  S
C1173      N1175   1.157       .  T
C1174      N1176   1.157       .  T
C1177      C1178   1.400       .  A
C1177      C1182   1.413       .  A
C1178      C1179   1.396       .  A
C1178      H1183   1.085       .  S
C1179      C1180   1.411       .  A
C1179      C1186   1.444       .  S
C1180      C1181   1.401       .  A
C1181      C1182   1.402       .  A
C1181      H1184   1.085       .  S
C1182      C1185   1.444       .  S
C1185      N1187   1.157       .  T
C1186      N1188   1.157       .  T
C1189      C1190   1.400       .  A
C1189      C1194   1.407       .  A
C1190      C1191   1.394       .  A
C1190      H1195   1.085       .  S
C1191      C1192   1.412       .  A
C1191      C1198   1.446       .  S
C1192      C1193   1.404       .  A
C1193      C1194   1.399       .  A
C1193      H1196   1.085       .  S
C1194      C1197   1.443       .  S
C1197      N1199   1.157       .  T
C1198      N1200   1.157       .  T
C1201      C1202   1.410       .  A
C1201      C1206   1.421       .  A
C1202      C1203   1.401       .  A
C1202      H1207   1.084       .  S
C1203      C1204   1.411       .  A
C1203      C1210   1.445       .  S
C1204      C1205   1.402       .  A
C1205      C1206   1.404       .  A
C1205      H1208   1.085       .  S
C1206      C1209   1.444       .  S
C1209      N1211   1.157       .  T
C1210      N1212   1.157       .  T
C1213      C1214   1.405       .  A
C1213      C1218   1.410       .  A
C1214      C1215   1.402       .  A
C1214      H1219   1.085       .  S
C1215      C1216   1.412       .  A
C1215      C1222   1.444       .  S
C1216      C1217   1.406       .  A
C1217      C1218   1.400       .  A
C1217      H1220   1.085       .  S
C1218      C1221   1.444       .  S
C1221      N1223   1.157       .  T
C1222      N1224   1.157       .  T
C1225      C1226   1.403       .  A
C1225      C1230   1.409       .  A
C1226      C1227   1.403       .  A
C1226      H1231   1.085       .  S
C1227      C1228   1.415       .  A
C1227      C1234   1.444       .  S
C1228      C1229   1.406       .  A
C1229      C1230   1.397       .  A
C1229      H1232   1.085       .  S
C1230      C1233   1.445       .  S
C1233      N1235   1.157       .  T
C1234      N1236   1.157       .  T
C1237      C1238   1.398       .  A
C1237      C1242   1.411       .  A
C1238      C1239   1.398       .  A
C1238      H1243   1.085       .  S
C1239      C1240   1.416       .  A
C1239      C1246   1.445       .  S
C1240      C1241   1.405       .  A
C1241      C1242   1.406       .  A
C1241      H1244   1.085       .  S
C1242      C1245   1.443       .  S
C1245      N1247   1.157       .  T
C1246      N1248   1.157       .  T
C1249      C1250   1.402       .  A
C1249      C1254   1.411       .  A
C1250      C1251   1.399   1_556  A
C1250      H1255   1.085       .  S
C1251      C1252   1.413       .  A
C1251      C1258   1.444       .  S
C1252      C1253   1.403       .  A
C1253      C1254   1.396   1_554  A
C1253      H1256   1.085       .  S
C1254      C1257   1.445       .  S
C1257      N1259   1.157       .  T
C1258      N1260   1.157       .  T
C1261      C1262   1.408       .  A
C1261      C1266   1.414       .  A
C1262      C1263   1.396       .  A
C1262      H1267   1.084       .  S
C1263      C1264   1.411       .  A
C1263      C1270   1.445   1_655  S
C1264      C1265   1.406       .  A
C1265      C1266   1.403       .  A
C1265      H1268   1.085       .  S
C1266      C1269   1.443       .  S
C1269      N1271   1.157       .  T
C1270      N1272   1.157       .  T
C1273      C1274   1.399       .  A
C1273      C1278   1.406       .  A
C1274      C1275   1.404       .  A
C1274      H1279   1.085       .  S
C1275      C1276   1.422       .  A
C1275      C1282   1.443       .  S
C1276      C1277   1.410       .  A
C1277      C1278   1.396       .  A
C1277      H1280   1.085       .  S
C1278      C1281   1.445       .  S
C1281      N1283   1.157       .  T
C1282      N1284   1.157       .  T
C1285      C1286   1.404       .  A
C1285      C1290   1.413       .  A
C1286      C1287   1.404   1_556  A
C1286      H1291   1.085       .  S
C1287      C1288   1.412       .  A
C1287      C1294   1.442       .  S
C1288      C1289   1.403       .  A
C1289      C1290   1.396   1_554  A
C1289      H1292   1.085       .  S
C1290      C1293   1.445       .  S
C1293      N1295   1.157       .  T
C1294      N1296   1.157       .  T
C1297      C1298   1.406       .  A
C1297      C1302   1.411       .  A
C1298      C1299   1.395       .  A
C1298      H1303   1.085       .  S
C1299      C1300   1.407   1_655  A
C1299      C1306   1.443       .  S
C1300      C1301   1.408       .  A
C1301      C1302   1.405   1_455  A
C1301      H1304   1.085       .  S
C1302      C1305   1.444       .  S
C1305      N1307   1.157       .  T
C1306      N1308   1.157       .  T
C1309      C1310   1.403       .  A
C1309      C1314   1.412       .  A
C1310      C1311   1.396       .  A
C1310      H1315   1.085       .  S
C1311      C1312   1.410       .  A
C1311      C1318   1.445       .  S
C1312      C1313   1.402       .  A
C1313      C1314   1.401       .  A
C1313      H1316   1.085       .  S
C1314      C1317   1.444       .  S
C1317      N1319   1.157       .  T
C1318      N1320   1.157       .  T
C1321      C1322   1.406       .  A
C1321      C1326   1.413       .  A
C1322      C1323   1.403       .  A
C1322      H1327   1.085   1_565  S
C1323      C1324   1.410       .  A
C1323      C1330   1.444   1_565  S
C1324      C1325   1.402       .  A
C1325      C1326   1.398       .  A
C1325      H1328   1.085       .  S
C1326      C1329   1.445       .  S
C1329      N1331   1.157       .  T
C1330      N1332   1.157       .  T
C1333      C1334   1.403       .  A
C1333      C1338   1.407       .  A
C1334      C1335   1.401       .  A
C1334      H1339   1.085       .  S
C1335      C1336   1.419       .  A
C1335      C1342   1.444       .  S
C1336      C1337   1.411       .  A
C1337      C1338   1.393       .  A
C1337      H1340   1.084       .  S
C1338      C1341   1.445       .  S
C1341      N1343   1.157       .  T
C1342      N1344   1.157       .  T
C1345      C1346   1.402       .  A
C1345      C1350   1.409       .  A
C1346      C1347   1.398       .  A
C1346      H1351   1.085       .  S
C1347      C1348   1.420       .  A
C1347      C1354   1.445       .  S
C1348      C1349   1.409       .  A
C1349      C1350   1.395       .  A
C1349      H1352   1.084       .  S
C1350      C1353   1.444       .  S
C1353      N1355   1.157       .  T
C1354      N1356   1.157       .  T
C1357      C1358   1.404       .  A
C1357      C1362   1.412       .  A
C1358      C1359   1.402       .  A
C1358      H1363   1.085       .  S
C1359      C1360   1.413       .  A
C1359      C1366   1.444       .  S
C1360      C1361   1.405       .  A
C1361      C1362   1.403       .  A
C1361      H1364   1.085       .  S
C1362      C1365   1.444       .  S
C1365      N1367   1.157   1_565  T
C1366      N1368   1.157       .  T
C1369      C1370   1.402       .  A
C1369      C1374   1.416       .  A
C1370      C1371   1.406       .  A
C1370      H1375   1.085       .  S
C1371      C1372   1.420       .  A
C1371      C1378   1.444       .  S
C1372      C1373   1.405       .  A
C1373      C1374   1.407       .  A
C1373      H1376   1.084       .  S
C1374      C1377   1.444       .  S
C1377      N1379   1.157       .  T
C1378      N1380   1.157       .  T
C1381      C1382   1.404       .  A
C1381      C1386   1.416       .  A
C1382      C1383   1.398       .  A
C1382      H1387   1.085       .  S
C1383      C1384   1.417       .  A
C1383      C1390   1.445       .  S
C1384      C1385   1.411       .  A
C1385      C1386   1.414       .  A
C1385      H1388   1.084       .  S
C1386      C1389   1.443       .  S
C1389      N1391   1.157       .  T
C1390      N1392   1.157       .  T
C1393      C1394   1.402       .  A
C1393      C1398   1.412       .  A
C1394      C1395   1.399       .  A
C1394      H1399   1.085   1_554  S
C1395      C1396   1.416   1_565  A
C1395      C1402   1.442   1_564  S
C1396      C1397   1.408   1_545  A
C1397      C1398   1.407       .  A
C1397      H1400   1.084   1_565  S
C1398      C1401   1.443       .  S
C1401      N1403   1.157       .  T
C1402      N1404   1.157       .  T
C1405      C1406   1.406       .  A
C1405      C1410   1.415       .  A
C1406      C1407   1.396       .  A
C1406      H1411   1.085       .  S
C1407      C1408   1.407       .  A
C1407      C1414   1.442       .  S
C1408      C1409   1.405       .  A
C1409      C1410   1.403       .  A
C1409      H1412   1.085       .  S
C1410      C1413   1.444       .  S
C1413      N1415   1.158       .  T
C1414      N1416   1.157       .  T
C1417      C1418   1.399       .  A
C1417      C1422   1.412       .  A
C1418      C1419   1.401       .  A
C1418      H1423   1.085       .  S
C1419      C1420   1.418       .  A
C1419      C1426   1.444       .  S
C1420      C1421   1.407       .  A
C1421      C1422   1.405       .  A
C1421      H1424   1.084       .  S
C1422      C1425   1.444       .  S
C1425      N1427   1.157       .  T
C1426      N1428   1.157       .  T
C1429      C1430   1.401   1_546  A
C1429      C1434   1.410   1_545  A
C1430      C1431   1.394       .  A
C1430      H1435   1.085   1_565  S
C1431      C1432   1.413   1_554  A
C1431      C1438   1.445       .  S
C1432      C1433   1.407       .  A
C1433      C1434   1.404       .  A
C1433      H1436   1.084       .  S
C1434      C1437   1.444   1_565  S
C1437      N1439   1.157       .  T
C1438      N1440   1.157       .  T
C1441      C1442   1.406       .  A
C1441      C1446   1.417       .  A
C1442      C1443   1.405       .  A
C1442      H1447   1.085       .  S
C1443      C1444   1.412       .  A
C1443      C1450   1.443       .  S
C1444      C1445   1.403       .  A
C1445      C1446   1.402       .  A
C1445      H1448   1.085       .  S
C1446      C1449   1.445       .  S
C1449      N1451   1.157       .  T
C1450      N1452   1.157       .  T
C1453      C1454   1.403       .  A
C1453      C1458   1.412       .  A
C1454      C1455   1.404       .  A
C1454      H1459   1.085       .  S
C1455      C1456   1.421       .  A
C1455      C1462   1.444       .  S
C1456      C1457   1.409       .  A
C1457      C1458   1.400       .  A
C1457      H1460   1.084       .  S
C1458      C1461   1.444       .  S
C1461      N1463   1.157       .  T
C1462      N1464   1.157       .  T
