geometry optimzed in LAMMPS
_audit_creation_date              2020-11-30 
_audit_creation_method            'lammps2cif' 
_symmetry_space_group_name_H-M    'P1' 
_symmetry_Int_Tables_number       1 
_symmetry_cell_setting            triclinic 
loop_ 
_symmetry_equiv_pos_as_xyz 
  x,y,z 
_cell_length_a                    37.44072029 
_cell_length_b                    37.343501908038355 
_cell_length_c                    37.42882798680903 
_cell_angle_alpha                 89.9789407077973 
_cell_angle_beta                  90.05431025496007 
_cell_angle_gamma                 90.07195456018604 
loop_ 
_atom_site_label 
_atom_site_type_symbol 
_atom_site_fract_x 
_atom_site_fract_y 
_atom_site_fract_z 
_atom_site_charge 
C1          C  0.24333091  0.85094438  0.03663658     0.05100
C2          C  0.24866804  0.88812094  0.03539040    -0.11000
C3          C  0.25101240  0.90591834  0.00251548     0.02600
C4          C  0.24867089  0.88606015  0.97081568    -0.09500
C5          C  0.24261056  0.84905869  0.97172013     0.05100
C6          C  0.24068552  0.83139045  0.00472414    -0.08900
H7          H  0.24911884  0.90336063  0.06002854     0.10700
H8          H  0.24999741  0.89965147  0.94524853     0.08300
H9          H  0.23479585  0.80297288  0.00559612     0.08100
C10         C  0.62218759  0.11309893  0.03076457     0.05100
C11         C  0.62391566  0.13044713  0.99760224    -0.11000
C12         C  0.62341464  0.11085989  0.96566812     0.02600
C13         C  0.61852945  0.07364939  0.96695236    -0.09500
C14         C  0.61532597  0.05607953  0.99993013     0.05100
C15         C  0.61743736  0.07586883  0.03172226    -0.08900
H16         H  0.62689973  0.15930263  0.99663271     0.10700
H17         H  0.61897935  0.05814006  0.94249176     0.08300
H18         H  0.61663070  0.06204132  0.05716797     0.08100
C19         C  0.79816942  0.01969331  0.31039606     0.05100
C20         C  0.78059616  0.98656537  0.30731417    -0.11000
C21         C  0.79889288  0.95430295  0.31369303     0.02600
C22         C  0.83527543  0.95551804  0.32310224    -0.09500
C23         C  0.85334390  0.98837528  0.32539502     0.05100
C24         C  0.83437139  0.02027740  0.32009388    -0.08900
H25         H  0.75310979  0.98580888  0.29826466     0.10700
H26         H  0.84995452  0.93084565  0.32704767     0.08300
H27         H  0.84828140  0.04565175  0.32231947     0.08100
C28         C  0.06087231  0.01097602  0.68156211     0.05100
C29         C  0.07886450  0.97858124  0.68799163    -0.11000
C30         C  0.06068894  0.94584179  0.68624713     0.02600
C31         C  0.02407313  0.94538645  0.67865857    -0.09500
C32         C  0.00546815  0.97742603  0.67260950     0.05100
C33         C  0.02427301  0.00996359  0.67283602    -0.08900
H34         H  0.10661782  0.97875164  0.69620031     0.10700
H35         H  0.00984668  0.92008160  0.67844705     0.08300
H36         H  0.00991863  0.03465780  0.66805830     0.08100
C37         C  0.89980570  0.68144474  0.13638333     0.05100
C38         C  0.93218098  0.68630353  0.15477007    -0.11000
C39         C  0.96494675  0.68127528  0.13745777     0.02600
C40         C  0.96549339  0.67225728  0.10122889    -0.09500
C41         C  0.93356104  0.66857732  0.08206691     0.05100
C42         C  0.90078254  0.67223533  0.09991466    -0.08900
H43         H  0.93204245  0.69461071  0.18250159     0.10700
H44         H  0.99086378  0.66953292  0.08755979     0.08300
H45         H  0.87613633  0.66891494  0.08510422     0.08100
C46         C  0.89948432  0.29342352  0.86760642     0.05100
C47         C  0.90178221  0.30063392  0.90434055    -0.11000
C48         C  0.93501019  0.30183078  0.92159246     0.02600
C49         C  0.96633198  0.29706544  0.90162067    -0.09500
C50         C  0.96466846  0.29034774  0.86478480     0.05100
C51         C  0.93111699  0.28858176  0.84794978    -0.08900
H52         H  0.87758483  0.30394754  0.91984637     0.10700
H53         H  0.99199938  0.29738299  0.91503675     0.08300
H54         H  0.92962464  0.28243838  0.81970442     0.08100
C55         C  0.61709584  0.84604049  0.03499096     0.05100
C56         C  0.61205067  0.88320433  0.03459083    -0.11000
C57         C  0.60989270  0.90191389  0.00219891     0.02600
C58         C  0.61199697  0.88310405  0.96984141    -0.09500
C59         C  0.61720663  0.84595483  0.96991779     0.05100
C60         C  0.61901485  0.82748407  0.00245618    -0.08900
H61         H  0.61179854  0.89797398  0.05950976     0.10700
H62         H  0.61209331  0.89760207  0.94474005     0.08300
H63         H  0.62336572  0.79879415  0.00234309     0.08100
C64         C  0.23958994  0.11756105  0.02755319     0.05100
C65         C  0.24534925  0.08041567  0.02878436    -0.11000
C66         C  0.24884232  0.06054170  0.99723620     0.02600
C67         C  0.24699955  0.07810961  0.96417627    -0.09500
C68         C  0.24008713  0.11493805  0.96225673     0.05100
C69         C  0.23715550  0.13467200  0.99409892    -0.08900
H70         H  0.24516990  0.06662776  0.05426372     0.10700
H71         H  0.24978528  0.06277449  0.93975832     0.08300
H72         H  0.23176076  0.16313096  0.99283554     0.08100
C73         C  0.79689755  0.01326814  0.68539388     0.05100
C74         C  0.83306911  0.01211903  0.67508904    -0.11000
C75         C  0.85094623  0.97932001  0.67178878     0.02600
C76         C  0.83180329  0.94732583  0.67598165    -0.09500
C77         C  0.79569307  0.94771880  0.68571088     0.05100
C78         C  0.77837090  0.98072585  0.69045558    -0.08900
H79         H  0.84796310  0.03674491  0.67158704     0.10700
H80         H  0.84560958  0.92193990  0.67351125     0.08300
H81         H  0.75110704  0.98091893  0.70009489     0.08100
C82         C  0.06452336  0.01657714  0.31636926     0.05100
C83         C  0.08144810  0.98308395  0.31523921    -0.11000
C84         C  0.06182763  0.95151479  0.32045679     0.02600
C85         C  0.02499555  0.95340024  0.32714625    -0.09500
C86         C  0.00773550  0.98671632  0.32866668     0.05100
C87         C  0.02783318  0.01815239  0.32405511    -0.08900
H88         H  0.10941149  0.98134827  0.30797887     0.10700
H89         H  0.00952682  0.92892731  0.32916793     0.08300
H90         H  0.01449655  0.04388020  0.32493067     0.08100
C91         C  0.89817681  0.66743371  0.87378674     0.05100
C92         C  0.90002784  0.66172751  0.91082967    -0.11000
C93         C  0.93322364  0.65981759  0.92818073     0.02600
C94         C  0.96468991  0.66253838  0.90803207    -0.09500
C95         C  0.96316523  0.66857576  0.87113369     0.05100
C96         C  0.92987144  0.67068235  0.85407022    -0.08900
H97         H  0.87563575  0.66064213  0.92637490     0.10700
H98         H  0.99039620  0.66195896  0.92138689     0.08300
H99         H  0.92864539  0.67644073  0.82570773     0.08100
C100        C  0.89821657  0.29718888  0.12956747     0.05100
C101        C  0.92973101  0.29242910  0.14940620    -0.11000
C102        C  0.96320981  0.29412643  0.13269788     0.02600
C103        C  0.96506960  0.30035099  0.09585500    -0.09500
C104        C  0.93391130  0.30471733  0.07563364     0.05100
C105        C  0.90063652  0.30408568  0.09273988    -0.08900
H106        H  0.92825065  0.28631696  0.17765685     0.10700
H107        H  0.99079562  0.30035179  0.08258717     0.08300
H108        H  0.87653722  0.30733953  0.07703381     0.08100
C109        C  0.29499362  0.51218367  0.81187785     0.05100
C110        C  0.33128495  0.51094315  0.82114799    -0.11000
C111        C  0.34995789  0.47846659  0.82135149     0.02600
C112        C  0.33146635  0.44643631  0.81489683    -0.09500
C113        C  0.29490474  0.44707111  0.80649098     0.05100
C114        C  0.27691816  0.47999640  0.80461908    -0.08900
H115        H  0.34557368  0.53553372  0.82690371     0.10700
H116        H  0.34585513  0.42127165  0.81444713     0.08300
H117        H  0.24911660  0.48051180  0.79657402     0.08100
C118        C  0.29828042  0.51899932  0.18721445     0.05100
C119        C  0.27859596  0.48704187  0.19043550    -0.11000
C120        C  0.29508941  0.45369729  0.18538534     0.02600
C121        C  0.33167411  0.45225150  0.17766131    -0.09500
C122        C  0.35191650  0.48384372  0.17532209     0.05100
C123        C  0.33486214  0.51706445  0.17907095    -0.08900
H124        H  0.25072742  0.48793877  0.19816403     0.10700
H125        H  0.34474168  0.42647080  0.17530970     0.08300
H126        H  0.35050397  0.54142006  0.17724524     0.08100
C127        C  0.10918248  0.34556781  0.52756712     0.05100
C128        C  0.10280816  0.38244737  0.52955210    -0.11000
C129        C  0.10078695  0.40319586  0.49832418     0.02600
C130        C  0.10357890  0.38634203  0.46488985    -0.09500
C131        C  0.10958645  0.34925689  0.46263028     0.05100
C132        C  0.11216238  0.32903047  0.49411130    -0.08900
H133        H  0.10181343  0.39537347  0.55546354     0.10700
H134        H  0.10318027  0.40233288  0.44072005     0.08300
H135        H  0.11860708  0.30076907  0.49266082     0.08100
O136        O  0.18166642  0.27504159  0.66797445    -0.76500
C137        C  0.22423644  0.31455284  0.76936337     0.84600
O138        O  0.24984158  0.17702055  0.71617228    -0.77600
O139        O  0.19776828  0.21518081  0.82841368    -0.79100
O140        O  0.09359525  0.24359820  0.75836037    -0.78900
O141        O  0.12623209  0.25502984  0.67554383    -0.77500
Zn142      Zn  0.20949589  0.25899684  0.71125787     1.55700
O143        O  0.12547114  0.26266493  0.80495748    -0.78900
Cd144      Cd  0.13102878  0.22554198  0.72215836     1.59700
Cd145      Cd  0.20186531  0.17951277  0.74449869     1.59600
O146        O  0.11792260  0.17306337  0.71120553    -0.78900
O147        O  0.18051467  0.22882738  0.74190540    -1.89400
Cd148      Cd  0.17788955  0.25049673  0.79078396     1.59900
O149        O  0.16715210  0.14171388  0.72336399    -0.78800
O150        O  0.20755942  0.29708807  0.79337443    -0.77500
C151        C  0.26611965  0.20110739  0.69824282     0.85000
C152        C  0.14934976  0.27242824  0.65754786     0.84700
O153        O  0.22614505  0.30333119  0.73727854    -0.76500
C154        C  0.09557813  0.25740306  0.78941307     0.85500
O155        O  0.25338379  0.23255543  0.69481107    -0.76500
C156        C  0.13484526  0.14353040  0.71272058     0.85600
C157        C  0.20844434  0.18281355  0.82702852     0.86000
O158        O  0.21073211  0.16553270  0.79768658    -0.79000
C159        C  0.74157661  0.34440340  0.53155305     0.05100
C160        C  0.73856981  0.32634767  0.49886502    -0.11000
C161        C  0.74234605  0.34503294  0.46662052     0.02600
C162        C  0.74892451  0.38194878  0.46719814    -0.09500
C163        C  0.75076020  0.40046150  0.49980126     0.05100
C164        C  0.74797419  0.38137191  0.53193553    -0.08900
H165        H  0.73233010  0.29798957  0.49850848     0.10700
H166        H  0.75045483  0.39660778  0.44223812     0.08300
H167        H  0.74823647  0.39559110  0.55718295     0.08100
C168        C  0.40048320  0.17262995  0.62735333     0.05100
C169        C  0.43242251  0.17632495  0.64659717    -0.11000
C170        C  0.46549682  0.17231954  0.62959140     0.02600
C171        C  0.46659980  0.16455343  0.59299470    -0.09500
C172        C  0.43489339  0.16186824  0.57302868     0.05100
C173        C  0.40182113  0.16519479  0.59058062    -0.08900
H174        H  0.43155079  0.18285043  0.67480642     0.10700
H175        H  0.49222246  0.16233451  0.57972013     0.08300
H176        H  0.37721780  0.16411306  0.57533974     0.08100
O177        O  0.63213913  0.30468116  0.74801101    -0.76500
C178        C  0.70887489  0.27584788  0.66542941     0.84600
O179        O  0.61343564  0.17955307  0.72193935    -0.77600
O180        O  0.74519144  0.17702943  0.72059186    -0.79100
O181        O  0.73608389  0.26543618  0.81313571    -0.78900
O182        O  0.65356293  0.30004894  0.80323011    -0.77500
Zn183      Zn  0.65091242  0.26245982  0.72078825     1.55700
O184        O  0.76789560  0.25238345  0.76446729    -0.78900
Cd185      Cd  0.68393891  0.25368389  0.79912534     1.59700
Cd186      Cd  0.65993756  0.18337463  0.75189765     1.59600
O187        O  0.66610036  0.21684102  0.83589554    -0.78900
O188        O  0.68118110  0.23264388  0.75013122    -1.89400
Cd189      Cd  0.73061659  0.23010368  0.72985663     1.59900
O190        O  0.64854297  0.16937682  0.80411622    -0.78800
O191        O  0.73263057  0.25790038  0.68202151    -0.77500
C192        C  0.59665971  0.20367183  0.70469832     0.85000
C193        C  0.63464482  0.31619405  0.77991982     0.84700
O194        O  0.67740763  0.27961119  0.67769289    -0.76500
C195        C  0.76570186  0.26377248  0.79649802     0.85500
O196        O  0.60826388  0.23563199  0.70295408    -0.76500
C197        C  0.65337282  0.18524046  0.83388408     0.85600
C198        C  0.72800229  0.14751071  0.72216819     0.86000
O199        O  0.69559975  0.14601944  0.73245922    -0.79000
C200        C  0.11955467  0.61346671  0.53574169     0.05100
C201        C  0.12124073  0.63186108  0.50299804    -0.11000
C202        C  0.11925012  0.61340094  0.47028053     0.02600
C203        C  0.11281208  0.57633510  0.47062901    -0.09500
C204        C  0.10953693  0.55772697  0.50305214     0.05100
C205        C  0.11324977  0.57638170  0.53544029    -0.08900
H206        H  0.12520900  0.66059807  0.50296952     0.10700
H207        H  0.11236529  0.56151061  0.44575817     0.08300
H208        H  0.11246571  0.56168254  0.56038494     0.08100
O209        O  0.17650218  0.78019272  0.82692272    -0.76500
C210        C  0.13524446  0.81578889  0.72438262     0.84600
O211        O  0.11112811  0.67992556  0.78069507    -0.77600
O212        O  0.16674472  0.71659364  0.66797706    -0.79100
O213        O  0.26750305  0.74611068  0.74112557    -0.78900
O214        O  0.23155852  0.75838032  0.82323056    -0.77500
Zn215      Zn  0.14976296  0.76199467  0.78404527     1.55700
O216        O  0.23700092  0.76468624  0.69345276    -0.78900
Cd217      Cd  0.22863179  0.72867799  0.77649716     1.59700
Cd218      Cd  0.15809743  0.68287723  0.75178714     1.59600
O219        O  0.24089637  0.67619532  0.78827009    -0.78900
O220        O  0.17990139  0.73184747  0.75481244    -1.89400
Cd221      Cd  0.18432134  0.75292740  0.70585002     1.59900
O222        O  0.19245082  0.64494272  0.77267099    -0.78800
O223        O  0.15430587  0.79938003  0.70142267    -0.77500
C224        C  0.09451318  0.70364943  0.79856663     0.85000
C225        C  0.20803408  0.77702357  0.83932013     0.84700
O226        O  0.13212068  0.80420386  0.75620764    -0.76500
C227        C  0.26643301  0.75941442  0.70976387     0.85500
O228        O  0.10635669  0.73548168  0.80152057    -0.76500
C229        C  0.22407154  0.64668598  0.78516431     0.85600
C230        C  0.15309221  0.68531130  0.66929241     0.86000
O231        O  0.14748529  0.66928974  0.69890155    -0.79000
C232        C  0.55996573  0.51249723  0.81524863     0.05100
C233        C  0.52344813  0.51209148  0.82402644    -0.11000
C234        C  0.50426108  0.47979448  0.82547919     0.02600
C235        C  0.52245152  0.44731677  0.82118636    -0.09500
C236        C  0.55914136  0.44700297  0.81352713     0.05100
C237        C  0.57755156  0.47963241  0.81008497    -0.08900
H238        H  0.50939136  0.53702865  0.82842877     0.10700
H239        H  0.50774695  0.42232402  0.82224626     0.08300
H240        H  0.60523260  0.47930828  0.80171924     0.08100
C241        C  0.39906544  0.79108382  0.63625195     0.05100
C242        C  0.39922063  0.79850604  0.59943465    -0.11000
C243        C  0.43145656  0.80470506  0.58144665     0.02600
C244        C  0.46364344  0.80423239  0.60050655    -0.09500
C245        C  0.46437050  0.79528869  0.63692118     0.05100
C246        C  0.43180934  0.78942413  0.65472692    -0.08900
H247        H  0.37448325  0.79775740  0.58438257     0.10700
H248        H  0.48836631  0.80952765  0.58638206     0.08300
H249        H  0.43194061  0.78243920  0.68276007     0.08100
C250        C  0.73860701  0.61077337  0.53560870     0.05100
C251        C  0.73628153  0.62953733  0.50307836    -0.11000
C252        C  0.73796303  0.61126156  0.47036167     0.02600
C253        C  0.74305648  0.57408873  0.47033608    -0.09500
C254        C  0.74563035  0.55500618  0.50254116     0.05100
C255        C  0.74365849  0.57353091  0.53508784    -0.08900
H256        H  0.73169189  0.65818380  0.50323651     0.10700
H257        H  0.74436344  0.55986720  0.44513004     0.08300
H258        H  0.74404634  0.55870601  0.55998480     0.08100
O259        O  0.72995840  0.80267174  0.75566020    -0.76500
C260        C  0.65314390  0.77423347  0.83850918     0.84600
O261        O  0.74997795  0.67719974  0.78177764    -0.77600
O262        O  0.61836865  0.67448739  0.78474122    -0.79100
O263        O  0.62617665  0.76211721  0.69229495    -0.78900
O264        O  0.70765778  0.79715518  0.70083603    -0.77500
Zn265      Zn  0.71203416  0.75995967  0.78377110     1.55700
O266        O  0.59482619  0.74907114  0.74116043    -0.78900
Cd267      Cd  0.67842137  0.75011471  0.70531562     1.59700
Cd268      Cd  0.70316159  0.68010182  0.75209089     1.59600
O269        O  0.69589367  0.71334872  0.66810521    -0.78900
O270        O  0.68198928  0.72951507  0.75443154    -1.89400
Cd271      Cd  0.63265999  0.72717721  0.77506362     1.59900
O272        O  0.71440411  0.66593133  0.69938075    -0.78800
O273        O  0.62981895  0.75547756  0.82226774    -0.77500
C274        C  0.76617371  0.70077260  0.80039160     0.85000
C275        C  0.72630618  0.81415926  0.72376520     0.84700
O276        O  0.68475594  0.77795526  0.82648123    -0.76500
C277        C  0.59671675  0.76068695  0.70922952     0.85500
O278        O  0.75442064  0.73268912  0.80279217    -0.76500
C279        C  0.70902965  0.68190502  0.66969413     0.85600
C280        C  0.63496752  0.64472824  0.78302634     0.86000
O281        O  0.66731108  0.64265999  0.77246309    -0.79000
C282        C  0.39911320  0.17530174  0.36461703     0.05100
C283        C  0.43075721  0.17944440  0.34516543    -0.11000
C284        C  0.46388767  0.17489725  0.36181704     0.02600
C285        C  0.46540531  0.16629821  0.39820044    -0.09500
C286        C  0.43391082  0.16328279  0.41838525     0.05100
C287        C  0.40068669  0.16705839  0.40118248    -0.08900
H288        H  0.42961050  0.18699727  0.31720949     0.10700
H289        H  0.49118273  0.16377053  0.41117128     0.08300
H290        H  0.37620116  0.16576061  0.41655120     0.08100
O291        O  0.63491155  0.31131726  0.24906039    -0.76500
C292        C  0.59522928  0.20901928  0.28893157     0.84600
O293        O  0.73283782  0.26152101  0.31407922    -0.77600
O294        O  0.69405161  0.15031928  0.26344633    -0.79100
O295        O  0.66411041  0.22202875  0.15925442    -0.78900
O296        O  0.65290219  0.30538112  0.19280976    -0.77500
Zn297      Zn  0.65091997  0.26725847  0.27534483     1.55700
O298        O  0.64802115  0.17400805  0.19089831    -0.78900
Cd299      Cd  0.68246475  0.25835621  0.19642073     1.59700
Cd300      Cd  0.72956378  0.23425744  0.26600329     1.59600
O301        O  0.73472712  0.26958396  0.18272701    -0.78900
O302        O  0.68029668  0.23727319  0.24547924    -1.89400
Cd303      Cd  0.65915250  0.18807436  0.24315281     1.59900
O304        O  0.76645666  0.25624420  0.23149880    -0.78800
O305        O  0.61219186  0.18507404  0.27172483    -0.77500
C306        C  0.70921797  0.27900025  0.33124446     0.85000
C307        C  0.63663084  0.32287605  0.21709340     0.84700
O308        O  0.60710090  0.24087517  0.29157254    -0.76500
C309        C  0.65193537  0.19020703  0.16118610     0.85500
O310        O  0.67761407  0.28273177  0.31922524    -0.76500
C311        C  0.76428635  0.26768982  0.19951861     0.85600
C312        C  0.72658821  0.15181484  0.27334072     0.86000
O313        O  0.74389957  0.18123537  0.27462276    -0.79000
C314        C  0.39871636  0.80087726  0.37242147     0.05100
C315        C  0.43094036  0.79661891  0.35357846    -0.11000
C316        C  0.46390064  0.79938995  0.37128707     0.02600
C317        C  0.46447643  0.80651951  0.40806235    -0.09500
C318        C  0.43262787  0.80998715  0.42734460     0.05100
C319        C  0.39993675  0.80839554  0.40920449    -0.08900
H320        H  0.43041605  0.78911112  0.32562270     0.10700
H321        H  0.48980774  0.80796755  0.42203795     0.08300
H322        H  0.37533879  0.81108850  0.42417152     0.08100
C323        C  0.56053244  0.52074842  0.18774671     0.05100
C324        C  0.58007750  0.48882983  0.19074957    -0.11000
C325        C  0.56319980  0.45554745  0.18696828     0.02600
C326        C  0.52642563  0.45411086  0.18020939    -0.09500
C327        C  0.50629289  0.48571854  0.17778913     0.05100
C328        C  0.52361720  0.51897934  0.18092824    -0.08900
H329        H  0.60826724  0.48977031  0.19731308     0.10700
H330        H  0.51323161  0.42832714  0.17828248     0.08300
H331        H  0.50813533  0.54342898  0.17943560     0.08100
O332        O  0.67659317  0.68518094  0.32602296    -0.76500
C333        C  0.59580927  0.76490695  0.29873183     0.84600
O334        O  0.65654973  0.66646905  0.20249785    -0.77600
O335        O  0.64820048  0.79690698  0.19858962    -0.79100
O336        O  0.74250764  0.79116113  0.28772832    -0.78900
O337        O  0.73131144  0.70830770  0.32462221    -0.77500
Zn338      Zn  0.64987587  0.70543863  0.28406068     1.55700
O339        O  0.69447270  0.82267478  0.27130727    -0.78900
Cd340      Cd  0.72932586  0.73813782  0.27761939     1.59700
Cd341      Cd  0.68510141  0.71377868  0.20691283     1.59600
O342        O  0.76815816  0.71906837  0.24290624    -0.78900
O343        O  0.68066748  0.73538329  0.25543238    -1.89400
Cd344      Cd  0.65929838  0.78453178  0.25145416     1.59900
O345        O  0.73770549  0.70527058  0.19353959    -0.78800
O346        O  0.61180405  0.78809140  0.27955254    -0.77500
C347        C  0.63511241  0.65160229  0.22437911     0.85000
C348        C  0.70780677  0.68832870  0.33924546     0.84700
O349        O  0.60808470  0.73335824  0.30258775    -0.76500
C350        C  0.72615216  0.82085756  0.28375987     0.85500
O351        O  0.63013013  0.66427116  0.25555480    -0.76500
C352        C  0.76699356  0.70850096  0.21053156     0.85600
C353        C  0.65257767  0.77957227  0.16958386     0.86000
O354        O  0.66576144  0.74820555  0.16900919    -0.79000
O355        O  0.11012357  0.74126311  0.20789852    -0.76500
C356        C  0.13545328  0.81979045  0.28604877     0.84600
O357        O  0.23426864  0.76285040  0.18691666    -0.77600
O358        O  0.23623386  0.76835460  0.31832433    -0.79100
O359        O  0.14987147  0.67101378  0.30784249    -0.78900
O360        O  0.11440616  0.68481985  0.22633574    -0.77500
Zn361      Zn  0.15284394  0.76737506  0.22603433     1.55700
O362        O  0.16615523  0.71834414  0.34044560    -0.78900
Cd363      Cd  0.16119756  0.68687273  0.25569663     1.59700
Cd364      Cd  0.23136701  0.73442627  0.23430601     1.59600
O365        O  0.19654306  0.65033767  0.23373524    -0.78900
O366        O  0.18212024  0.73636954  0.25496339    -1.89400
Cd367      Cd  0.18405367  0.75625135  0.30449447     1.59900
O368        O  0.24620459  0.68197816  0.22379437    -0.78800
O369        O  0.15307144  0.80241379  0.30953007    -0.77500
C370        C  0.21098862  0.78190056  0.17096342     0.85000
C371        C  0.09799915  0.70949628  0.20953273     0.84700
O372        O  0.13436486  0.80927880  0.25374344    -0.76500
C373        C  0.15387177  0.68657405  0.33794771     0.85500
O374        O  0.17967456  0.78565220  0.18358532    -0.76500
C375        C  0.22904606  0.65245191  0.22380276     0.85600
C376        C  0.26580113  0.76722735  0.30148091     0.86000
O377        O  0.26805663  0.75616883  0.26936601    -0.79000
O378        O  0.22702951  0.30805952  0.24996473    -0.76500
C379        C  0.15027518  0.27745262  0.33171279     0.84600
O380        O  0.25153100  0.18353108  0.27305181    -0.77600
O381        O  0.12190945  0.17456547  0.27878662    -0.79100
O382        O  0.12423164  0.26713202  0.18800267    -0.78900
O383        O  0.20602328  0.30299908  0.19470981    -0.77500
Zn384      Zn  0.21015712  0.26475430  0.27742427     1.55700
O385        O  0.09452157  0.24538013  0.23484069    -0.78900
Cd386      Cd  0.17705464  0.25571709  0.19908974     1.59700
Cd387      Cd  0.20466735  0.18499596  0.24356059     1.59600
O388        O  0.19446864  0.22057421  0.16037078    -0.78900
O389        O  0.18180355  0.23344570  0.24754918    -1.89400
Cd390      Cd  0.13340841  0.22756540  0.26911071     1.59900
O391        O  0.21573217  0.17344370  0.19026259    -0.78800
O392        O  0.12855646  0.25637117  0.31604155    -0.77500
C393        C  0.26664602  0.20733070  0.29227911     0.85000
C394        C  0.22383294  0.32004509  0.21824291     0.84700
O395        O  0.18163369  0.28271459  0.31954513    -0.76500
C396        C  0.09515313  0.26050136  0.20439295     0.85500
O397        O  0.25340184  0.23856086  0.29582606    -0.76500
C398        C  0.20913565  0.18979809  0.16101479     0.85600
C399        C  0.13932575  0.14554937  0.27520002     0.86000
O400        O  0.17115901  0.14488126  0.26310197    -0.79000
C401        C  0.62935894  0.59551497  0.18765657     0.25600
C402        C  0.61532370  0.61896532  0.21351924    -0.22500
C403        C  0.58220332  0.61070946  0.22936343     0.20500
C404        C  0.56396041  0.57936589  0.22019872     0.25600
C405        C  0.57835477  0.55553860  0.19495035    -0.22400
C406        C  0.61105374  0.56412420  0.17849087     0.20500
F407        F  0.62538622  0.54199930  0.15355981    -0.12400
F408        F  0.66140745  0.60227147  0.17207879    -0.14800
F409        F  0.53285845  0.57164582  0.23718759    -0.14800
F410        F  0.56730100  0.63301513  0.25380135    -0.12400
C411        C  0.33819487  0.77187182  0.37130654     0.25600
C412        C  0.36389287  0.79387940  0.35463302    -0.22500
C413        C  0.35641865  0.80795111  0.32050633     0.20500
C414        C  0.32429011  0.79960090  0.30323649     0.25600
C415        C  0.29875551  0.77784122  0.32014720    -0.22400
C416        C  0.30573918  0.76449349  0.35447681     0.20500
F417        F  0.28186237  0.74265621  0.37098880    -0.12400
F418        F  0.34509558  0.75596839  0.40320386    -0.14800
F419        F  0.31787463  0.81316312  0.27018406    -0.14800
F420        F  0.38005911  0.83000474  0.30396958    -0.12400
C421        C  0.50683076  0.80864775  0.32048011     0.25600
C422        C  0.49765254  0.79109464  0.35242754    -0.22500
C423        C  0.52090028  0.76509469  0.36644507     0.20500
C424        C  0.55279021  0.75692063  0.34908899     0.25600
C425        C  0.56222281  0.77450875  0.31720192    -0.22400
C426        C  0.53894744  0.80056101  0.30306794     0.20500
F427        F  0.54680590  0.81758861  0.27198605    -0.12400
F428        F  0.48491758  0.83393833  0.30639573    -0.14800
F429        F  0.57469080  0.73201724  0.36388615    -0.14800
F430        F  0.51236325  0.74690044  0.39668191    -0.12400
C431        C  0.61500665  0.38363936  0.23522887     0.25600
C432        C  0.61918899  0.35745412  0.20843948    -0.22500
C433        C  0.60567139  0.36442033  0.17395853     0.20500
C434        C  0.58752707  0.39645148  0.16682570     0.25600
C435        C  0.58327108  0.42223966  0.19376344    -0.22400
C436        C  0.59741555  0.41574688  0.22786418     0.20500
F437        F  0.59331890  0.44020814  0.25438804    -0.12400
F438        F  0.62818881  0.37834991  0.26862817    -0.14800
F439        F  0.57415697  0.40239548  0.13361784    -0.14800
F440        F  0.60899070  0.33983940  0.14745905    -0.12400
C441        C  0.55329445  0.16412570  0.31633698     0.25600
C442        C  0.56103727  0.19977381  0.30650630    -0.22500
C443        C  0.53597387  0.22678252  0.31432942     0.20500
C444        C  0.50417504  0.21839540  0.33185767     0.25600
C445        C  0.49691896  0.18302182  0.34214536    -0.22400
C446        C  0.52156102  0.15592653  0.33428822     0.20500
F447        F  0.51477841  0.12153566  0.34393835    -0.12400
F448        F  0.57677426  0.13731913  0.30947358    -0.14800
F449        F  0.48070758  0.24499878  0.33954557    -0.14800
F450        F  0.54200828  0.26135313  0.30477956    -0.12400
C451        C  0.34043269  0.15568910  0.33933575     0.25600
C452        C  0.36471653  0.18320815  0.34718779    -0.22500
C453        C  0.35683284  0.21845481  0.33695594     0.20500
C454        C  0.32495047  0.22625151  0.31923610     0.25600
C455        C  0.30047380  0.19876268  0.31099544    -0.22400
C456        C  0.30864058  0.16330502  0.32110216     0.20500
F457        F  0.28568479  0.13608212  0.31384373    -0.12400
F458        F  0.34789169  0.12137951  0.34872203    -0.14800
F459        F  0.31852086  0.26064135  0.30935385    -0.14800
F460        F  0.38014800  0.24538829  0.34419400    -0.12400
C461        C  0.70106034  0.65034400  0.57409099     0.25600
C462        C  0.73195214  0.62939754  0.56997070    -0.22500
C463        C  0.75524393  0.62522118  0.59924931     0.20500
C464        C  0.74780533  0.64194660  0.63196521     0.25600
C465        C  0.71715476  0.66337377  0.63575242    -0.22400
C466        C  0.69382829  0.66723714  0.60653558     0.20500
F467        F  0.66319417  0.68639826  0.60977709    -0.12400
F468        F  0.67708788  0.65343387  0.54701547    -0.14800
F469        F  0.77098441  0.63795193  0.65959678    -0.14800
F470        F  0.78548978  0.60546932  0.59596532    -0.12400
C471        C  0.70371236  0.61911452  0.41351881     0.25600
C472        C  0.73134756  0.63044241  0.43631019    -0.22500
C473        C  0.75188622  0.66044062  0.42669262     0.20500
C474        C  0.74475789  0.67899716  0.39491653     0.25600
C475        C  0.71660160  0.66809715  0.37232898    -0.22400
C476        C  0.69635675  0.63770548  0.38196702     0.20500
F477        F  0.66948000  0.62562469  0.36074134    -0.12400
F478        F  0.68309917  0.59047632  0.42228408    -0.14800
F479        F  0.76495221  0.70807968  0.38675018    -0.14800
F480        F  0.77912795  0.67155516  0.44794556    -0.12400
C481        C  0.45119944  0.78155292  0.52239157     0.25600
C482        C  0.43220276  0.80725437  0.54208132    -0.22500
C483        C  0.41365248  0.83443628  0.52394559     0.20500
C484        C  0.41432126  0.83599200  0.48654046     0.25600
C485        C  0.43336434  0.81021729  0.46687329    -0.22400
C486        C  0.45165286  0.78290941  0.48518097     0.20500
F487        F  0.46874271  0.75656342  0.46696458    -0.12400
F488        F  0.46828228  0.75427136  0.53923866    -0.14800
F489        F  0.39665151  0.86276056  0.46952573    -0.14800
F490        F  0.39527832  0.85962040  0.54248948    -0.12400
C491        C  0.52631021  0.76936979  0.63765592     0.25600
C492        C  0.49910599  0.78861645  0.65527690    -0.22500
C493        C  0.50497504  0.79968015  0.69084318     0.20500
C494        C  0.53673223  0.79070648  0.70856209     0.25600
C495        C  0.56367210  0.77159858  0.69069811    -0.22400
C496        C  0.55839561  0.76163184  0.65494707     0.20500
F497        F  0.58367067  0.74261152  0.63718971    -0.12400
F498        F  0.52135103  0.75629320  0.60417517    -0.14800
F499        F  0.54139644  0.80120388  0.74298662    -0.14800
F500        F  0.48019608  0.81948464  0.70841629    -0.12400
C501        C  0.56197087  0.57490075  0.78947311     0.25600
C502        C  0.57891960  0.54708587  0.80857940    -0.22500
C503        C  0.61450003  0.55225569  0.81995873     0.20500
C504        C  0.63282603  0.58392200  0.81162726     0.25600
C505        C  0.61568185  0.61153143  0.79272757    -0.22400
C506        C  0.57993906  0.60691212  0.78225312     0.20500
F507        F  0.56278929  0.63284233  0.76346223    -0.12400
F508        F  0.52847271  0.57069145  0.77619728    -0.14800
F509        F  0.66713556  0.58790634  0.82273216    -0.14800
F510        F  0.63149575  0.52689676  0.83961953    -0.12400
C511        C  0.33062295  0.74634045  0.69655462     0.25600
C512        C  0.30038004  0.76806013  0.69139769    -0.22500
C513        C  0.30261100  0.79716706  0.66762122     0.20500
C514        C  0.33464384  0.80479306  0.64987466     0.25600
C515        C  0.36495041  0.78305991  0.65503735    -0.22400
C516        C  0.36236777  0.75345091  0.67823099     0.20500
F517        F  0.39019986  0.73051285  0.68226359    -0.12400
F518        F  0.32909772  0.71727181  0.71831909    -0.14800
F519        F  0.33618179  0.83391414  0.62819345    -0.14800
F520        F  0.27399304  0.81879376  0.66215977    -0.12400
C521        C  0.11571637  0.64337406  0.37285353     0.25600
C522        C  0.14474705  0.66729916  0.37129794    -0.22500
C523        C  0.16528672  0.67305135  0.40222932     0.20500
C524        C  0.15698221  0.65549925  0.43408026     0.25600
C525        C  0.12740314  0.63222964  0.43611922    -0.22400
C526        C  0.10689660  0.62626281  0.40505090     0.20500
F527        F  0.07785771  0.60446926  0.40597489    -0.12400
F528        F  0.09526978  0.63729498  0.34348876    -0.14800
F529        F  0.17883606  0.66037974  0.46263908    -0.14800
F530        F  0.19434783  0.69484407  0.40137887    -0.12400
C531        C  0.15672648  0.65593423  0.57241170     0.25600
C532        C  0.12733773  0.63243039  0.56995395    -0.22500
C533        C  0.10651902  0.62632312  0.60072276     0.20500
C534        C  0.11499771  0.64318201  0.63311270     0.25600
C535        C  0.14404143  0.66705177  0.63527916    -0.22400
C536        C  0.16472249  0.67328696  0.60452636     0.20500
F537        F  0.19363810  0.69525435  0.60580302    -0.12400
F538        F  0.17871234  0.66117047  0.54405240    -0.14800
F539        F  0.09422808  0.63679105  0.66214629    -0.14800
F540        F  0.07749019  0.60454710  0.59934167    -0.12400
C541        C  0.56384622  0.38855649  0.78101416     0.25600
C542        C  0.57775119  0.41275947  0.80623142    -0.22500
C543        C  0.61005982  0.40452183  0.82358693     0.20500
C544        C  0.62832493  0.37281999  0.81561492     0.25600
C545        C  0.61478117  0.34897154  0.78982595    -0.22400
C546        C  0.58218461  0.35705639  0.77284504     0.20500
F547        F  0.56780029  0.33427652  0.74846344    -0.12400
F548        F  0.53299998  0.39591392  0.76337261    -0.14800
F549        F  0.65980837  0.36604729  0.83231198    -0.14800
F550        F  0.62386238  0.42715365  0.84841913    -0.12400
C551        C  0.45723121  0.18495243  0.51440506     0.25600
C552        C  0.43645050  0.15998276  0.53343252    -0.22500
C553        C  0.41595632  0.13484670  0.51428593     0.20500
C554        C  0.41567611  0.13522211  0.47681509     0.25600
C555        C  0.43589368  0.16072810  0.45790599    -0.22400
C556        C  0.45691231  0.18535447  0.47712619     0.20500
F557        F  0.47582873  0.21112864  0.45984468    -0.12400
F558        F  0.47654847  0.21027951  0.53191045    -0.14800
F559        F  0.39579282  0.11059783  0.45898264    -0.14800
F560        F  0.39636160  0.10983786  0.53188058    -0.12400
C561        C  0.52537434  0.15328466  0.65280422     0.25600
C562        C  0.49886294  0.17964985  0.64936743    -0.22500
C563        C  0.50454127  0.21363996  0.66434637     0.20500
C564        C  0.53624765  0.22126378  0.68244505     0.25600
C565        C  0.56282783  0.19487703  0.68624255    -0.22400
C566        C  0.55701630  0.16070333  0.67141252     0.20500
F567        F  0.58235968  0.13485097  0.67396185    -0.12400
F568        F  0.52047577  0.12031799  0.63831328    -0.14800
F569        F  0.54073377  0.25444807  0.69661904    -0.14800
F570        F  0.47964936  0.23981118  0.66066191    -0.12400
C571        C  0.72374311  0.45849006  0.48128637     0.25600
C572        C  0.75043790  0.44003445  0.50021273    -0.22500
C573        C  0.77523088  0.45953133  0.52070177     0.20500
C574        C  0.77376815  0.49699221  0.52157331     0.25600
C575        C  0.74744880  0.51542138  0.50202050    -0.22400
C576        C  0.72227373  0.49577414  0.48215385     0.20500
F577        F  0.69541813  0.51265421  0.46450982    -0.12400
F578        F  0.69815478  0.44029467  0.46300417    -0.14800
F579        F  0.79839258  0.51528956  0.54100362    -0.14800
F580        F  0.80108051  0.44231862  0.53947718    -0.12400
C581        C  0.69998893  0.31480818  0.42533655     0.25600
C582        C  0.73470464  0.32706113  0.43241695    -0.22500
C583        C  0.76127842  0.32340481  0.40625618     0.20500
C584        C  0.75327312  0.30727808  0.37342834     0.25600
C585        C  0.71833562  0.29521974  0.36613330    -0.22400
C586        C  0.69178777  0.29920654  0.39246698     0.20500
F587        F  0.65788957  0.28760993  0.38661973    -0.12400
F588        F  0.67375034  0.31881982  0.45004083    -0.14800
F589        F  0.77939120  0.30445842  0.34844677    -0.14800
F590        F  0.79493728  0.33541425  0.41258250    -0.12400
C591        C  0.69961830  0.31175702  0.57144731     0.25600
C592        C  0.73391752  0.32559734  0.56525081    -0.22500
C593        C  0.76012052  0.32287647  0.59193820     0.20500
C594        C  0.75219676  0.30622443  0.62444984     0.25600
C595        C  0.71773292  0.29261465  0.63087097    -0.22400
C596        C  0.69148865  0.29557726  0.60405805     0.20500
F597        F  0.65803005  0.28247181  0.60923164    -0.12400
F598        F  0.67370043  0.31484903  0.54621839    -0.14800
F599        F  0.77783509  0.30449707  0.65006897    -0.14800
F600        F  0.79334895  0.33637756  0.58644678    -0.12400
C601        C  0.30738305  0.15924640  0.66535624     0.25600
C602        C  0.30077676  0.19293446  0.68093271    -0.22500
C603        C  0.32730228  0.21961153  0.67879042     0.20500
C604        C  0.35957292  0.21289432  0.66132500     0.25600
C605        C  0.36596039  0.17947902  0.64535628    -0.22400
C606        C  0.33959600  0.15273568  0.64735227     0.20500
F607        F  0.34528999  0.12018954  0.63225274    -0.12400
F608        F  0.28232466  0.13297661  0.66669471    -0.14800
F609        F  0.38445032  0.23932994  0.65945196    -0.14800
F610        F  0.32224668  0.25213482  0.69419006    -0.12400
C611        C  0.12863493  0.45979231  0.52028535     0.25600
C612        C  0.10132897  0.44278598  0.50078491    -0.22500
C613        C  0.07611424  0.46383521  0.48249794     0.20500
C614        C  0.07833409  0.50130410  0.48362427     0.25600
C615        C  0.10584190  0.51821119  0.50299945    -0.22400
C616        C  0.13086399  0.49707345  0.52137947     0.20500
F617        F  0.15849238  0.51252556  0.53917218    -0.12400
F618        F  0.15420160  0.44023043  0.53705895    -0.14800
F619        F  0.05349758  0.52109974  0.46605428    -0.14800
F620        F  0.04924664  0.44810397  0.46381392    -0.12400
C621        C  0.15716216  0.32739601  0.37625758     0.25600
C622        C  0.13883203  0.29648829  0.36465287    -0.22500
C623        C  0.10954461  0.28410137  0.38492759     0.20500
C624        C  0.09944757  0.30173744  0.41634534     0.25600
C625        C  0.11810320  0.33225984  0.42794089    -0.22400
C626        C  0.14685739  0.34504555  0.40749959     0.20500
F627        F  0.16593287  0.37395787  0.41853798    -0.12400
F628        F  0.18512826  0.34076720  0.35739664    -0.14800
F629        F  0.07144167  0.28894956  0.43554791    -0.14800
F630        F  0.09114827  0.25437814  0.37495260    -0.12400
C631        C  0.16396059  0.29721046  0.59698166     0.25600
C632        C  0.13850824  0.29025500  0.62382852    -0.22500
C633        C  0.10285308  0.30117407  0.61831721     0.20500
C634        C  0.09309564  0.31903912  0.58688027     0.25600
C635        C  0.11858093  0.32562076  0.56023751    -0.22400
C636        C  0.15399417  0.31455195  0.56546413     0.20500
F637        F  0.17919655  0.32145400  0.54029782    -0.12400
F638        F  0.19853261  0.28701527  0.60101191    -0.14800
F639        F  0.05880776  0.32996948  0.58242569    -0.14800
F640        F  0.07763244  0.29556514  0.64375956    -0.12400
C641        C  0.41028156  0.46292472  0.19988841     0.25600
C642        C  0.39142270  0.48228423  0.17375614    -0.22500
C643        C  0.41059879  0.50228141  0.14831533     0.20500
C644        C  0.44801068  0.50306707  0.14917912     0.25600
C645        C  0.46680305  0.48386744  0.17549794    -0.22400
C646        C  0.44755380  0.46375434  0.20078788     0.20500
F647        F  0.46480714  0.44625600  0.22751850    -0.12400
F648        F  0.39253934  0.44466693  0.22578061    -0.14800
F649        F  0.46590271  0.52246464  0.12425787    -0.14800
F650        F  0.39306427  0.52105141  0.12266742    -0.12400
C651        C  0.26517741  0.41234955  0.22802475     0.25600
C652        C  0.27531933  0.42025502  0.19285337    -0.22500
C653        C  0.26785670  0.39552218  0.16558536     0.20500
C654        C  0.25050061  0.36314472  0.17348881     0.25600
C655        C  0.24100108  0.35475170  0.20901248    -0.22400
C656        C  0.24837688  0.37994101  0.23610305     0.20500
F657        F  0.23903532  0.37345120  0.27054916    -0.12400
F658        F  0.27241945  0.43577482  0.25481731    -0.14800
F659        F  0.24389697  0.33970789  0.14654512    -0.14800
F660        F  0.27736947  0.40279075  0.13134081    -0.12400
C661        C  0.28169707  0.61160699  0.22598752     0.25600
C662        C  0.24753044  0.61943604  0.21264866    -0.22500
C663        C  0.23064862  0.59482076  0.18978897     0.20500
C664        C  0.24751642  0.56265392  0.18071582     0.25600
C665        C  0.28126966  0.55413817  0.19500636    -0.22400
C666        C  0.29820334  0.57908083  0.21771742     0.20500
F667        F  0.33004595  0.57137615  0.23330346    -0.12400
F668        F  0.29838777  0.63472676  0.24850643    -0.14800
F669        F  0.23099015  0.53999862  0.15762848    -0.14800
F670        F  0.19802832  0.60222438  0.17574775    -0.12400
C671        C  0.44522434  0.45924807  0.85067918     0.25600
C672        C  0.46469134  0.48029714  0.82627003    -0.22500
C673        C  0.44611972  0.50046000  0.80054512     0.20500
C674        C  0.40893701  0.49977887  0.79927162     0.25600
C675        C  0.38939647  0.47893021  0.82368235    -0.22400
C676        C  0.40777510  0.45855194  0.84935966     0.20500
F677        F  0.38944627  0.43841985  0.87336683    -0.12400
F678        F  0.46245062  0.43969484  0.87593995    -0.14800
F679        F  0.39198383  0.51855399  0.77321356    -0.14800
F680        F  0.46406869  0.51970509  0.77552462    -0.12400
C681        C  0.27409419  0.38539423  0.82212942     0.25600
C682        C  0.27612600  0.41348043  0.79726743    -0.22500
C683        C  0.26072640  0.40908650  0.76329163     0.20500
C684        C  0.24397989  0.37686957  0.75412595     0.25600
C685        C  0.24189854  0.34865892  0.77900423    -0.22400
C686        C  0.25694460  0.35332571  0.81318373     0.20500
F687        F  0.25589801  0.32649364  0.83765644    -0.12400
F688        F  0.28841228  0.38922046  0.85525324    -0.14800
F689        F  0.22924858  0.37352507  0.72112209    -0.14800
F690        F  0.26256162  0.43578070  0.73871096    -0.12400
C691        C  0.24231642  0.55334164  0.82004487     0.25600
C692        C  0.27703807  0.54728646  0.80688410    -0.22500
C693        C  0.29439491  0.57490329  0.78792723     0.20500
C694        C  0.27757058  0.60772460  0.78244180     0.25600
C695        C  0.24257398  0.61326722  0.79455291    -0.22400
C696        C  0.22505208  0.58594073  0.81350427     0.20500
F697        F  0.19143363  0.59102441  0.82608544    -0.12400
F698        F  0.22521903  0.52787502  0.83950013    -0.14800
F699        F  0.29483724  0.63349500  0.76349957    -0.14800
F700        F  0.32706310  0.56966497  0.77311157    -0.12400
C701        C  0.85535102  0.30684920  0.18038458     0.25600
C702        C  0.86288351  0.29180934  0.14670206    -0.22500
C703        C  0.83694519  0.26999162  0.13017499     0.20500
C704        C  0.80427225  0.26349907  0.14686446     0.25600
C705        C  0.79732619  0.27764177  0.18085856    -0.22400
C706        C  0.82302269  0.29935954  0.19754134     0.20500
F707        F  0.81664394  0.31356659  0.23030939    -0.12400
F708        F  0.87920586  0.32889184  0.19665763    -0.14800
F709        F  0.78017727  0.24163328  0.13067877    -0.14800
F710        F  0.84384982  0.25332971  0.09869269    -0.12400
C711        C  0.99921363  0.25547791  0.17371946     0.25600
C712        C  0.99629627  0.28671081  0.15292525    -0.22500
C713        C  0.02588941  0.30974563  0.14990848     0.20500
C714        C  0.05806132  0.30136047  0.16682707     0.25600
C715        C  0.06101993  0.27002728  0.18739026    -0.22400
C716        C  0.03123252  0.24733447  0.19100710     0.20500
F717        F  0.03359470  0.21637448  0.20992409    -0.12400
F718        F  0.97161298  0.23195302  0.17595545    -0.14800
F719        F  0.08617098  0.32413289  0.16352829    -0.14800
F720        F  0.02357159  0.34048564  0.13066146    -0.12400
C721        C  0.84148241  0.70215360  0.86837293     0.25600
C722        C  0.86340810  0.67421408  0.85622323    -0.22500
C723        C  0.85288614  0.65437743  0.82610797     0.20500
C724        C  0.82104320  0.66254196  0.80821082     0.25600
C725        C  0.79933466  0.69104595  0.81990680    -0.22400
C726        C  0.80986842  0.71057776  0.85039355     0.20500
F727        F  0.78952467  0.73784740  0.86303872    -0.12400
F728        F  0.85134240  0.72220773  0.89700696    -0.14800
F729        F  0.81209321  0.64322760  0.77880518    -0.14800
F730        F  0.87352107  0.62707799  0.81401918    -0.12400
C731        C  0.00061901  0.71041859  0.83516441     0.25600
C732        C  0.99626920  0.67673286  0.85132438    -0.22500
C733        C  0.02431787  0.65184026  0.85002203     0.20500
C734        C  0.05613627  0.66032521  0.83233371     0.25600
C735        C  0.06062121  0.69415726  0.81635892    -0.22400
C736        C  0.03260019  0.71916558  0.81804329     0.20500
F737        F  0.03600395  0.75197632  0.80274518    -0.12400
F738        F  0.97423785  0.73528326  0.83694804    -0.14800
F739        F  0.08300623  0.63594484  0.83189792    -0.14800
F740        F  0.02084280  0.61933331  0.86591164    -0.12400
C741        C  0.12198560  0.87044616  0.32882836     0.25600
C742        C  0.11556286  0.85283917  0.29605430    -0.22500
C743        C  0.09001601  0.86754113  0.27240718     0.20500
C744        C  0.07190917  0.89902198  0.28109188     0.25600
C745        C  0.07895052  0.91670389  0.31333400    -0.22400
C746        C  0.10398787  0.90226381  0.33720131     0.20500
F747        F  0.11114265  0.91916600  0.36851205    -0.12400
F748        F  0.14628320  0.85748842  0.35244642    -0.14800
F749        F  0.04816386  0.91295629  0.25742256    -0.14800
F750        F  0.08244186  0.85164811  0.24065805    -0.12400
C751        C  0.11807129  0.05733524  0.32032514     0.25600
C752        C  0.08421557  0.04948421  0.30582389    -0.22500
C753        C  0.06955136  0.07286940  0.28017298     0.20500
C754        C  0.08777318  0.10392739  0.27015085     0.25600
C755        C  0.12137161  0.11182344  0.28483702    -0.22400
C756        C  0.13665722  0.08812531  0.30961926     0.20500
F757        F  0.16894089  0.09552106  0.32443659    -0.12400
F758        F  0.13270250  0.03573580  0.34556917    -0.14800
F759        F  0.07293595  0.12599944  0.24540711    -0.14800
F760        F  0.03794560  0.06521828  0.26404068    -0.12400
C761        C  0.77588802  0.85886856  0.73038660     0.25600
C762        C  0.74409669  0.84815466  0.71333840    -0.22500
C763        C  0.72928629  0.87059637  0.68686981     0.20500
C764        C  0.74577110  0.90317745  0.67802060     0.25600
C765        C  0.77760193  0.91360766  0.69502659    -0.22400
C766        C  0.79248832  0.89111032  0.72121869     0.20500
F767        F  0.82291926  0.90072389  0.73851608    -0.12400
F768        F  0.79133959  0.83786120  0.75565169    -0.14800
F769        F  0.73093741  0.92430394  0.65248906    -0.14800
F770        F  0.69838960  0.86146835  0.67015172    -0.12400
C771        C  0.79799852  0.07477742  0.71347204     0.25600
C772        C  0.77949480  0.04821059  0.69393467    -0.22500
C773        C  0.74391652  0.05501006  0.68365495     0.20500
C774        C  0.72722734  0.08718785  0.69301923     0.25600
C775        C  0.74598932  0.11379314  0.71190044    -0.22400
C776        C  0.78160587  0.10739348  0.72179154     0.20500
F777        F  0.80009330  0.13208139  0.74101131    -0.12400
F778        F  0.83150507  0.06872611  0.72598300    -0.14800
F779        F  0.69280502  0.09264185  0.68295362    -0.14800
F780        F  0.72532654  0.03077135  0.66399703    -0.12400
C781        C  0.20877074  0.11608794  0.90291800     0.25600
C782        C  0.23302913  0.13196359  0.92705222    -0.22500
C783        C  0.24965895  0.16439774  0.91753221     0.20500
C784        C  0.24186669  0.18079576  0.88478607     0.25600
C785        C  0.21785215  0.16474962  0.86075538    -0.22400
C786        C  0.20154127  0.13217918  0.86995113     0.20500
F787        F  0.17731117  0.11679348  0.84769464    -0.12400
F788        F  0.19093678  0.08567748  0.91181665    -0.14800
F789        F  0.25821912  0.21210885  0.87622640    -0.14800
F790        F  0.27384902  0.17994459  0.93969112    -0.12400
C791        C  0.25537365  0.13263342  0.09117982     0.25600
C792        C  0.23311469  0.13764197  0.06121841    -0.22500
C793        C  0.20345001  0.16054980  0.06426349     0.20500
C794        C  0.19617976  0.17797985  0.09647064     0.25600
C795        C  0.21799080  0.17239103  0.12661868    -0.22400
C796        C  0.24771906  0.14960800  0.12362525     0.20500
F797        F  0.26975472  0.14421237  0.15194846    -0.12400
F798        F  0.28477284  0.11149356  0.08898574    -0.14800
F799        F  0.16677739  0.19913993  0.09853816    -0.14800
F800        F  0.18040775  0.16483513  0.03655459    -0.12400
C801        C  0.65977203  0.81208636  0.93184666     0.25600
C802        C  0.62571718  0.82713252  0.93640420    -0.22500
C803        C  0.60053759  0.82467227  0.90872884     0.20500
C804        C  0.60916537  0.80686792  0.87699033     0.25600
C805        C  0.64343842  0.79211173  0.87225379    -0.22400
C806        C  0.66866077  0.79493873  0.89996498     0.20500
F807        F  0.70175565  0.78051668  0.89644991    -0.12400
F808        F  0.68470774  0.81468783  0.95810031    -0.14800
F809        F  0.58439042  0.80492783  0.85054238    -0.14800
F810        F  0.56758485  0.83929016  0.91259747    -0.12400
C811        C  0.65468652  0.80507942  0.07209492     0.25600
C812        C  0.62470683  0.82758230  0.06918141    -0.22500
C813        C  0.60375573  0.83415240  0.09970935     0.20500
C814        C  0.61291417  0.81886345  0.13257803     0.25600
C815        C  0.64274655  0.79621868  0.13528019    -0.22400
C816        C  0.66338211  0.78929894  0.10469301     0.20500
F817        F  0.69296300  0.76835584  0.10662387    -0.12400
F818        F  0.67665369  0.79959118  0.04377050    -0.14800
F819        F  0.59220725  0.82561079  0.16156247    -0.14800
F820        F  0.57423687  0.85514353  0.09765920    -0.12400
C821        C  0.91865927  0.33190681  0.97927114     0.25600
C822        C  0.93666247  0.30441833  0.96098554    -0.18100
C823        C  0.95458545  0.27786496  0.98065769     0.20500
C824        C  0.95418587  0.27850349  0.01789397     0.25600
C825        C  0.93593645  0.30576447  0.03622928    -0.22400
C826        C  0.91832854  0.33259075  0.01665113     0.20500
F827        F  0.90091458  0.35945315  0.03374644    -0.12400
F828        F  0.90145117  0.35808270  0.96091040    -0.14800
F829        F  0.97019931  0.25141506  0.03605970    -0.14800
F830        F  0.97100225  0.25020489  0.96382532    -0.12400
C831        C  0.80589217  0.25885118  0.84919253     0.25600
C832        C  0.79869099  0.27380574  0.81553679    -0.22500
C833        C  0.82389672  0.29678761  0.79980263     0.20500
C834        C  0.85616933  0.30424348  0.81727269     0.25600
C835        C  0.86408892  0.28811993  0.85036636    -0.22400
C836        C  0.83841430  0.26555945  0.86627203     0.20500
F837        F  0.84541901  0.24854799  0.89757452    -0.12400
F838        F  0.78214807  0.23614273  0.86470197    -0.14800
F839        F  0.87957679  0.32742490  0.80198916    -0.14800
F840        F  0.81703610  0.31235606  0.76774334    -0.12400
C841        C  0.05941928  0.29775711  0.82905560     0.25600
C842        C  0.06202236  0.26660720  0.80811511    -0.22500
C843        C  0.03225787  0.24371987  0.80546267     0.20500
C844        C  0.00065437  0.25155373  0.82370262     0.25600
C845        C  0.99791560  0.28275844  0.84455320    -0.22400
C846        C  0.02758027  0.30586220  0.84696053     0.20500
F847        F  0.02554768  0.33657341  0.86626150    -0.12400
F848        F  0.08741174  0.32077625  0.83151754    -0.14800
F849        F  0.97317810  0.22783328  0.82210297    -0.14800
F850        F  0.03422098  0.21290641  0.78630571    -0.12400
C851        C  0.95379920  0.68758452  0.98513323     0.25600
C852        C  0.93497199  0.66009173  0.96765782    -0.22500
C853        C  0.91639974  0.63453499  0.98810797     0.20500
C854        C  0.91622587  0.63683515  0.02546874     0.25600
C855        C  0.93470447  0.66464750  0.04279553    -0.22400
C856        C  0.95371128  0.68980261  0.02229596     0.20500
F857        F  0.97102088  0.71752023  0.03823471    -0.12400
F858        F  0.97099090  0.71335721  0.96613587    -0.14800
F859        F  0.89833041  0.61179325  0.04474979    -0.14800
F860        F  0.89865978  0.60728856  0.97188994    -0.12400
C861        C  0.85984136  0.67434074  0.19000442     0.25600
C862        C  0.86526684  0.68749787  0.15508122    -0.22500
C863        C  0.83780893  0.70741614  0.13870186     0.20500
C864        C  0.80561774  0.71347177  0.15656874     0.25600
C865        C  0.80059811  0.70079876  0.19157024    -0.22400
C866        C  0.82805921  0.68148118  0.20826432     0.20500
F867        F  0.82376781  0.66873666  0.24196901    -0.12400
F868        F  0.88504809  0.65396262  0.20632586    -0.14800
F869        F  0.77983607  0.73308808  0.14017183    -0.14800
F870        F  0.84253313  0.72231229  0.10594145    -0.12400
C871        C  0.00504247  0.72137802  0.17235587     0.25600
C872        C  0.99874690  0.68789040  0.15655794    -0.22500
C873        C  0.02520829  0.66128366  0.15827367     0.20500
C874        C  0.05746413  0.66800156  0.17592132     0.25600
C875        C  0.06379961  0.70160655  0.19168206    -0.22400
C876        C  0.03729407  0.72823172  0.18968251     0.20500
F877        F  0.04240511  0.76086339  0.20488476    -0.12400
F878        F  0.98027384  0.74782857  0.17016127    -0.14800
F879        F  0.08286754  0.64208837  0.17662380    -0.14800
F880        F  0.01969152  0.62876281  0.14300175    -0.12400
C881        C  0.94729450  0.99571660  0.64372765     0.25600
C882        C  0.96588518  0.97721961  0.67076746    -0.22500
C883        C  0.94635928  0.95971253  0.69768766     0.20500
C884        C  0.90916889  0.96017406  0.69739571     0.25600
C885        C  0.89046881  0.97827683  0.67029585    -0.22400
C886        C  0.90979796  0.99634962  0.64357121     0.20500
F887        F  0.89240448  0.01432110  0.61726816    -0.12400
F888        F  0.96541423  0.01287442  0.61737641    -0.14800
F889        F  0.89134154  0.94415266  0.72465972    -0.14800
F890        F  0.96332463  0.94342124  0.72534816    -0.12400
C891        C  0.10803595  0.90022707  0.67451824     0.25600
C892        C  0.07939826  0.91232753  0.69540805    -0.22500
C893        C  0.06906539  0.89269665  0.72563234     0.20500
C894        C  0.08716456  0.86139919  0.73499711     0.25600
C895        C  0.11597136  0.84895529  0.71410650    -0.22400
C896        C  0.12606760  0.86869846  0.68359849     0.20500
F897        F  0.15377057  0.85795165  0.66284213    -0.12400
F898        F  0.11829728  0.91884246  0.64509279    -0.14800
F899        F  0.07611567  0.84317514  0.76439653    -0.14800
F900        F  0.04184751  0.90431664  0.74658740    -0.12400
C901        C  0.11501949  0.05099076  0.67613818     0.25600
C902        C  0.07945681  0.04576723  0.68749165    -0.22500
C903        C  0.06237595  0.07346936  0.70650811     0.20500
C904        C  0.08017620  0.10553248  0.71362386     0.25600
C905        C  0.11583516  0.11030788  0.70301591    -0.22400
C906        C  0.13318211  0.08274534  0.68433494     0.20500
F907        F  0.16757085  0.08676485  0.67354181    -0.12400
F908        F  0.13221599  0.02549897  0.65687223    -0.14800
F909        F  0.06303755  0.13127054  0.73264158    -0.14800
F910        F  0.02900592  0.06899942  0.71997603    -0.12400
C911        C  0.91263741  0.00664705  0.30135544     0.25600
C912        C  0.89281324  0.98936339  0.32819559    -0.22500
C913        C  0.91101019  0.97195185  0.35613407     0.20500
C914        C  0.94849706  0.97158950  0.35691968     0.25600
C915        C  0.96820354  0.98860033  0.32975545    -0.22400
C916        C  0.94985835  0.00627140  0.30212374     0.20500
F917        F  0.96802218  0.02185297  0.27483520    -0.12400
F918        F  0.89590836  0.02258681  0.27334852    -0.14800
F919        F  0.96555675  0.95489373  0.38425743    -0.14800
F920        F  0.89249016  0.95556768  0.38269399    -0.12400
C921        C  0.79694265  0.89297413  0.28613717     0.25600
C922        C  0.78071723  0.91940581  0.30749795    -0.22500
C923        C  0.74644033  0.91276221  0.32156721     0.20500
C924        C  0.72861042  0.88064565  0.31395473     0.25600
C925        C  0.74502204  0.85433776  0.29280119    -0.22400
C926        C  0.77938812  0.86065153  0.27917566     0.20500
F927        F  0.79529305  0.83614105  0.25764475    -0.12400
F928        F  0.82916892  0.89900830  0.27063215    -0.14800
F929        F  0.69555740  0.87495373  0.32774531    -0.14800
F930        F  0.73035968  0.93721152  0.34301999    -0.12400
C931        C  0.79598171  0.07856235  0.27799108     0.25600
C932        C  0.77960262  0.05358277  0.30101289    -0.22500
C933        C  0.74542702  0.06121240  0.31467813     0.20500
C934        C  0.72808955  0.09314030  0.30555531     0.25600
C935        C  0.74487127  0.11827784  0.28318952    -0.22400
C936        C  0.77895921  0.11076718  0.26955285     0.20500
F937        F  0.79522866  0.13404959  0.24690773    -0.12400
F938        F  0.82803156  0.07131990  0.26266933    -0.14800
F939        F  0.69526553  0.09996521  0.31934524    -0.14800
F940        F  0.72913082  0.03814469  0.33750577    -0.12400
C941        C  0.63725177  0.95977965  0.02093115     0.25600
C942        C  0.61019073  0.94142105  0.00234601    -0.22500
C943        C  0.58438774  0.96097971  0.98332003     0.20500
C944        C  0.58577635  0.99841345  0.98275956     0.25600
C945        C  0.61296149  0.01667393  0.00124387    -0.22400
C946        C  0.63859030  0.99706237  0.02042060     0.20500
F947        F  0.66571780  0.01399666  0.03764604    -0.12400
F948        F  0.66320188  0.94153158  0.03858506    -0.14800
F949        F  0.56034508  0.01688619  0.96462055    -0.14800
F950        F  0.55763540  0.94382939  0.96574657    -0.12400
C951        C  0.66726542  0.17102498  0.89732445     0.25600
C952        C  0.64521273  0.16608814  0.86732026    -0.22500
C953        C  0.61629271  0.14209608  0.86943632     0.20500
C954        C  0.60915215  0.12388668  0.90133790     0.25600
C955        C  0.63099743  0.12922086  0.93145961    -0.22400
C956        C  0.66046759  0.15250725  0.92891104     0.20500
F957        F  0.68337984  0.15662234  0.95677064    -0.12400
F958        F  0.69622607  0.19292364  0.89575238    -0.14800
F959        F  0.58042797  0.10173071  0.90304224    -0.14800
F960        F  0.59437894  0.13702886  0.84095696    -0.12400
C961        C  0.65765689  0.15755356  0.06602492     0.25600
C962        C  0.62870981  0.13351749  0.06409287    -0.22500
C963        C  0.60711496  0.12845731  0.09444622     0.20500
C964        C  0.61452440  0.14691348  0.12614020     0.25600
C965        C  0.64321821  0.17121189  0.12777251    -0.22400
C966        C  0.66455580  0.17648162  0.09736187     0.20500
F967        F  0.69320095  0.19881725  0.09840511    -0.12400
F968        F  0.68030975  0.16170098  0.03800547    -0.14800
F969        F  0.59326387  0.14151452  0.15501801    -0.14800
F970        F  0.57855670  0.10603976  0.09330410    -0.12400
C971        C  0.22621172  0.96355355  0.97986281     0.25600
C972        C  0.25144533  0.94552139  0.00109124    -0.22500
C973        C  0.27587460  0.96559143  0.02153105     0.20500
C974        C  0.27529686  0.00308467  0.02031583     0.25600
C975        C  0.25037793  0.02096907  0.99853661    -0.22400
C976        C  0.22575351  0.00080294  0.97852888     0.20500
F977        F  0.20022163  0.01722057  0.95862947    -0.12400
F978        F  0.20096267  0.94510993  0.96137139    -0.14800
F979        F  0.29937071  0.02188543  0.03996411    -0.14800
F980        F  0.30058037  0.94891035  0.04223427    -0.12400
C981        C  0.25471682  0.80122876  0.92640516     0.25600
C982        C  0.23391116  0.83006312  0.93824682    -0.22500
C983        C  0.20453551  0.84123776  0.91775218     0.20500
C984        C  0.19622021  0.82412037  0.88567245     0.25600
C985        C  0.21724727  0.79538272  0.87329026    -0.22400
C986        C  0.24665652  0.78414947  0.89407382     0.20500
F987        F  0.26734031  0.75628151  0.88348868    -0.12400
F988        F  0.28318360  0.79000977  0.94589350    -0.14800
F989        F  0.16778751  0.83614192  0.86658380    -0.14800
F990        F  0.18348286  0.86853899  0.92915067    -0.12400
C991        C  0.25768523  0.80578347  0.08393100     0.25600
C992        C  0.23585813  0.83346856  0.07114468    -0.22500
C993        C  0.20622033  0.84437781  0.09125895     0.20500
C994        C  0.19834910  0.82784669  0.12371544     0.25600
C995        C  0.22013284  0.79999366  0.13687465    -0.22400
C996        C  0.25009120  0.78930255  0.11665892     0.20500
F997        F  0.27171267  0.76248117  0.12811022    -0.12400
F998        F  0.28654333  0.79497111  0.06484773    -0.14800
F999        F  0.16940474  0.83940407  0.14224644    -0.14800
F1000       F  0.18433216  0.87064539  0.07900206    -0.12400
loop_ 
_geom_bond_atom_site_label_1 
_geom_bond_atom_site_label_2 
_geom_bond_distance 
_geom_bond_site_symmetry_2 
_ccdc_geom_bond_type 
C1            C2   1.403       .  A
C1            C6   1.404       .  A
C1          C992   1.474       .  S
C2            C3   1.401       .  A
C2            H7   1.084       .  S
C3            C4   1.402   1_554  A
C3          C972   1.480       .  S
C4            C5   1.400       .  A
C4            H8   1.084       .  S
C5            C6   1.402   1_556  A
C5          C982   1.476       .  S
C6            H9   1.084       .  S
C10          C11   1.401   1_554  A
C10          C15   1.402       .  A
C10         C962   1.482       .  S
C11          C12   1.402       .  A
C11          H16   1.084       .  S
C12          C13   1.402       .  A
C12         C955   1.480       .  S
C13          C14   1.403       .  A
C13          H17   1.084       .  S
C14          C15   1.403   1_556  A
C14         C945   1.475   1_556  S
C15          H18   1.084       .  S
C19          C20   1.405   1_545  A
C19          C24   1.403       .  A
C19         C932   1.486       .  S
C20          C21   1.407       .  A
C20          H25   1.083       .  S
C21          C22   1.407       .  A
C21         C922   1.488       .  S
C22          C23   1.403       .  A
C22          H26   1.083       .  S
C23          C24   1.402   1_565  A
C23         C912   1.482       .  S
C24          H27   1.084       .  S
C28          C29   1.406   1_545  A
C28          C33   1.409       .  A
C28         C902   1.490       .  S
C29          C30   1.400       .  A
C29          H34   1.083       .  S
C30          C31   1.400       .  A
C30         C892   1.475       .  S
C31          C32   1.403       .  A
C31          H35   1.084       .  S
C32          C33   1.404   1_565  A
C32         C882   1.484   1_455  S
C33          H36   1.083       .  S
C37          C38   1.405       .  A
C37          C42   1.408       .  A
C37         C862   1.489       .  S
C38          C39   1.401       .  A
C38          H43   1.083       .  S
C39          C40   1.397       .  A
C39         C872   1.474       .  S
C40          C41   1.400       .  A
C40          H44   1.084       .  S
C41          C42   1.405       .  A
C41         C855   1.478       .  S
C42          H45   1.083       .  S
C46          C47   1.404       .  A
C46          C51   1.407       .  A
C46         C835   1.486       .  S
C47          C48   1.402       .  A
C47          H52   1.084       .  S
C48          C49   1.403       .  A
C48         C822   1.479       .  S
C49          C50   1.403       .  A
C49          H53   1.084       .  S
C50          C51   1.406       .  A
C50         C845   1.485       .  S
C51          H54   1.083       .  S
C55          C56   1.401       .  A
C55          C60   1.403       .  A
C55         C812   1.481       .  S
C56          C57   1.401       .  A
C56          H61   1.084       .  S
C57          C58   1.403   1_554  A
C57         C942   1.475       .  S
C58          C59   1.401       .  A
C58          H62   1.084       .  S
C59          C60   1.401   1_556  A
C59         C802   1.473       .  S
C60          H63   1.084       .  S
C64          C65   1.405       .  A
C64          C69   1.408   1_554  A
C64         C792   1.487       .  S
C65          C66   1.401   1_554  A
C65          H70   1.084       .  S
C66          C67   1.402       .  A
C66         C975   1.480       .  S
C67          C68   1.402       .  A
C67          H71   1.084       .  S
C68          C69   1.406       .  A
C68         C782   1.486       .  S
C69          H72   1.083       .  S
C73          C74   1.409       .  A
C73          C78   1.411   1_545  A
C73         C772   1.494       .  S
C74          C75   1.402   1_545  A
C74          H79   1.083       .  S
C75          C76   1.401       .  A
C75         C885   1.481       .  S
C76          C77   1.401       .  A
C76          H80   1.084       .  S
C77          C78   1.405       .  A
C77         C765   1.484       .  S
C78          H81   1.083       .  S
C82          C83   1.403   1_545  A
C82          C87   1.405       .  A
C82         C752   1.486       .  S
C83          C84   1.402       .  A
C83          H88   1.084       .  S
C84          C85   1.404       .  A
C84         C745   1.475       .  S
C85          C86   1.404       .  A
C85          H89   1.084       .  S
C86          C87   1.404   1_565  A
C86         C915   1.482   1_455  S
C87          H90   1.084       .  S
C91          C92   1.404       .  A
C91          C96   1.403       .  A
C91         C722   1.480       .  S
C92          C93   1.404       .  A
C92          H97   1.084       .  S
C93          C94   1.403       .  A
C93         C852   1.479       .  S
C94          C95   1.400       .  A
C94          H98   1.084       .  S
C95          C96   1.402       .  A
C95         C732   1.476       .  S
C96          H99   1.084       .  S
C100        C101   1.405       .  A
C100        C105   1.405       .  A
C100        C702   1.484       .  S
C101        C102   1.403       .  A
C101        H106   1.083       .  S
C102        C103   1.400       .  A
C102        C712   1.478       .  S
C103        C104   1.400       .  A
C103        H107   1.084       .  S
C104        C105   1.401       .  A
C104        C825   1.477       .  S
C105        H108   1.083       .  S
C109        C110   1.403       .  A
C109        C114   1.405       .  A
C109        C692   1.486       .  S
C110        C111   1.401       .  A
C110        H115   1.084       .  S
C111        C112   1.402       .  A
C111        C675   1.479       .  S
C112        C113   1.405       .  A
C112        H116   1.084       .  S
C113        C114   1.404       .  A
C113        C682   1.478       .  S
C114        H117   1.084       .  S
C118        C119   1.407       .  A
C118        C123   1.405       .  A
C118        C665   1.488       .  S
C119        C120   1.404       .  A
C119        H124   1.084       .  S
C120        C121   1.401       .  A
C120        C652   1.478       .  S
C121        C122   1.404       .  A
C121        H125   1.084       .  S
C122        C123   1.403       .  A
C122        C642   1.482       .  S
C123        H126   1.083       .  S
C127        C128   1.400       .  A
C127        C132   1.401       .  A
C127        C635   1.474       .  S
C128        C129   1.404       .  A
C128        H133   1.084       .  S
C129        C130   1.405       .  A
C129        C612   1.481       .  S
C130        C131   1.406       .  A
C130        H134   1.084       .  S
C131        C132   1.403       .  A
C131        C625   1.481       .  S
C132        H135   1.084       .  S
O136        C152   1.275       .  A
O136       Zn142   2.017       .  S
C137        C685   1.479       .  S
C137        O153   1.274       .  A
C137        O150   1.274       .  A
O138        C151   1.277       .  A
O138       Cd145   2.089       .  S
O139        C157   1.275       .  A
O139       Cd148   2.068       .  S
O140        C154   1.274       .  A
O140       Cd144   2.064       .  S
O141        C152   1.275       .  A
O141       Cd144   2.071       .  S
Zn142       O153   2.019       .  S
Zn142       O155   2.015       .  S
Zn142       O147   1.939       .  S
O143        C154   1.276       .  A
O143       Cd148   2.084       .  S
Cd144       O146   2.061       .  S
Cd144       O147   1.998       .  S
Cd145       O149   2.074       .  S
Cd145       O158   2.084       .  S
Cd145       O147   2.011       .  S
O146        C156   1.274       .  A
O147       Cd148   2.003       .  S
Cd148       O150   2.065       .  S
O149        C156   1.275       .  A
C151        C602   1.483       .  S
C151        O155   1.274       .  A
C152        C632   1.483       .  S
C154        C842   1.480       .  S
C156        C905   1.475       .  S
C157        C785   1.474       .  S
C157        O158   1.277       .  A
C159        C160   1.402       .  A
C159        C164   1.401       .  A
C159        C592   1.472       .  S
C160        C161   1.401       .  A
C160        H165   1.084       .  S
C161        C162   1.400       .  A
C161        C582   1.473       .  S
C162        C163   1.404       .  A
C162        H166   1.084       .  S
C163        C164   1.402       .  A
C163        C572   1.478       .  S
C164        H167   1.084       .  S
C168        C169   1.402       .  A
C168        C173   1.405       .  A
C168        C605   1.481       .  S
C169        C170   1.401       .  A
C169        H174   1.084       .  S
C170        C171   1.401       .  A
C170        C562   1.477       .  S
C171        C172   1.406       .  A
C171        H175   1.084       .  S
C172        C173   1.408       .  A
C172        C552   1.485       .  S
C173        H176   1.084       .  S
O177        C193   1.273       .  A
O177       Zn183   2.006       .  S
C178        C595   1.475       .  S
C178        O194   1.273       .  A
C178        O191   1.275       .  A
O179        C192   1.274       .  A
O179       Cd186   2.075       .  S
O180        C198   1.277       .  A
O180       Cd189   2.086       .  S
O181        C195   1.274       .  A
O181       Cd185   2.068       .  S
O182        C193   1.275       .  A
O182       Cd185   2.079       .  S
Zn183       O194   1.999       .  S
Zn183       O196   1.998       .  S
Zn183       O188   1.931       .  S
O184        C195   1.275       .  A
O184       Cd189   2.077       .  S
Cd185       O187   2.057       .  S
Cd185       O188   1.998       .  S
Cd186       O190   2.068       .  S
Cd186       O199   2.065       .  S
Cd186       O188   2.005       .  S
O187        C197   1.274       .  A
O188       Cd189   2.003       .  S
Cd189       O191   2.071       .  S
O190        C197   1.275       .  A
C192        C565   1.479       .  S
C192        O196   1.271       .  A
C193        C545   1.481       .  S
C195        C832   1.473       .  S
C197        C952   1.473       .  S
C198        C775   1.480       .  S
C198        O199   1.274       .  A
C200        C201   1.406       .  A
C200        C205   1.405       .  A
C200        C532   1.492       .  S
C201        C202   1.407       .  A
C201        H206   1.083       .  S
C202        C203   1.405       .  A
C202        C525   1.491       .  S
C203        C204   1.404       .  A
C203        H207   1.083       .  S
C204        C205   1.405       .  A
C204        C615   1.482       .  S
C205        H208   1.083       .  S
O209        C225   1.274       .  A
O209       Zn215   2.009       .  S
C210        C895   1.485       .  S
C210        O226   1.273       .  A
C210        O223   1.275       .  A
O211        C224   1.274       .  A
O211       Cd218   2.068       .  S
O212        C230   1.275       .  A
O212       Cd221   2.069       .  S
O213        C227   1.275       .  A
O213       Cd217   2.073       .  S
O214        C225   1.275       .  A
O214       Cd217   2.074       .  S
Zn215       O226   2.002       .  S
Zn215       O228   2.012       .  S
Zn215       O220   1.935       .  S
O216        C227   1.275       .  A
O216       Cd221   2.073       .  S
Cd217       O219   2.061       .  S
Cd217       O220   2.000       .  S
Cd218       O222   2.067       .  S
Cd218       O231   2.081       .  S
Cd218       O220   2.005       .  S
O219        C229   1.274       .  A
O220       Cd221   2.001       .  S
Cd221       O223   2.075       .  S
O222        C229   1.274       .  A
C224        C735   1.476       .  S
C224        O228   1.273       .  A
C225        C985   1.485       .  S
C227        C512   1.481       .  S
C229        C695   1.470       .  S
C230        C535   1.483       .  S
C230        O231   1.277       .  A
C232        C233   1.407       .  A
C232        C237   1.407       .  A
C232        C502   1.494       .  S
C233        C234   1.404       .  A
C233        H238   1.083       .  S
C234        C235   1.401       .  A
C234        C672   1.482       .  S
C235        C236   1.404       .  A
C235        H239   1.084       .  S
C236        C237   1.405       .  A
C236        C542   1.483       .  S
C237        H240   1.083       .  S
C241        C242   1.406       .  A
C241        C246   1.408       .  A
C241        C515   1.489       .  S
C242        C243   1.402       .  A
C242        H247   1.084       .  S
C243        C244   1.400       .  A
C243        C482   1.477       .  S
C244        C245   1.403       .  A
C244        H248   1.084       .  S
C245        C246   1.407       .  A
C245        C492   1.491       .  S
C246        H249   1.081       .  S
C250        C251   1.407       .  A
C250        C255   1.404       .  A
C250        C462   1.484       .  S
C251        C252   1.404       .  A
C251        H256   1.084       .  S
C252        C253   1.401       .  A
C252        C472   1.483       .  S
C253        C254   1.403       .  A
C253        H257   1.084       .  S
C254        C255   1.403       .  A
C254        C575   1.480       .  S
C255        H258   1.084       .  S
O259        C275   1.276       .  A
O259       Zn265   2.025       .  S
C260        C805   1.475       .  S
C260        O276   1.274       .  A
C260        O273   1.273       .  A
O261        C274   1.275       .  A
O261       Cd268   2.077       .  S
O262        C280   1.276       .  A
O262       Cd271   2.070       .  S
O263        C277   1.274       .  A
O263       Cd267   2.065       .  S
O264        C275   1.275       .  A
O264       Cd267   2.075       .  S
Zn265       O276   2.014       .  S
Zn265       O278   2.016       .  S
Zn265       O270   1.939       .  S
O266        C277   1.273       .  A
O266       Cd271   2.070       .  S
Cd267       O269   2.064       .  S
Cd267       O270   1.997       .  S
Cd268       O272   2.086       .  S
Cd268       O281   2.082       .  S
Cd268       O270   2.011       .  S
O269        C279   1.275       .  A
O270       Cd271   2.004       .  S
Cd271       O273   2.062       .  S
O272        C279   1.277       .  A
C274        C725   1.485       .  S
C274        O278   1.274       .  A
C275        C762   1.485       .  S
C277        C495   1.476       .  S
C279        C465   1.479       .  S
C280        C505   1.479       .  S
C280        O281   1.277       .  A
C282        C283   1.400       .  A
C282        C287   1.404       .  A
C282        C452   1.473       .  S
C283        C284   1.398       .  A
C283        H288   1.084       .  S
C284        C285   1.400       .  A
C284        C445   1.471       .  S
C285        C286   1.405       .  A
C285        H289   1.084       .  S
C286        C287   1.407       .  A
C286        C555   1.484       .  S
C287        H290   1.084       .  S
O291        C307   1.273       .  A
O291       Zn297   2.009       .  S
C292        C442   1.480       .  S
C292        O308   1.273       .  A
C292        O305   1.273       .  A
O293        C306   1.274       .  A
O293       Cd300   2.071       .  S
O294        C312   1.274       .  A
O294       Cd303   2.067       .  S
O295        C309   1.274       .  A
O295       Cd299   2.060       .  S
O296        C307   1.275       .  A
O296       Cd299   2.081       .  S
Zn297       O308   2.007       .  S
Zn297       O310   2.007       .  S
Zn297       O302   1.929       .  S
O298        C309   1.274       .  A
O298       Cd303   2.067       .  S
Cd299       O301   2.066       .  S
Cd299       O302   1.999       .  S
Cd300       O304   2.061       .  S
Cd300       O313   2.077       .  S
Cd300       O302   2.001       .  S
O301        C311   1.274       .  A
O302       Cd303   2.002       .  S
Cd303       O305   2.062       .  S
O304        C311   1.273       .  A
C306        C585   1.479       .  S
C306        O310   1.273       .  A
C307        C432   1.483       .  S
C309        C965   1.474       .  S
C311        C705   1.468       .  S
C312        C935   1.475       .  S
C312        O313   1.276       .  A
C314        C315   1.407       .  A
C314        C319   1.406       .  A
C314        C412   1.486       .  S
C315        C316   1.404       .  A
C315        H320   1.084       .  S
C316        C317   1.402       .  A
C316        C422   1.481       .  S
C317        C318   1.401       .  A
C317        H321   1.084       .  S
C318        C319   1.400       .  A
C318        C485   1.480       .  S
C319        H322   1.083       .  S
C323        C324   1.404       .  A
C323        C328   1.407       .  A
C323        C405   1.484       .  S
C324        C325   1.401       .  A
C324        H329   1.084       .  S
C325        C326   1.401       .  A
C325        C435   1.476       .  S
C326        C327   1.404       .  A
C326        H330   1.084       .  S
C327        C328   1.405       .  A
C327        C645   1.482       .  S
C328        H331   1.084       .  S
O332        C348   1.274       .  A
O332       Zn338   2.009       .  S
C333        C425   1.480       .  S
C333        O349   1.273       .  A
C333        O346   1.274       .  A
O334        C347   1.274       .  A
O334       Cd341   2.070       .  S
O335        C353   1.275       .  A
O335       Cd344   2.074       .  S
O336        C350   1.276       .  A
O336       Cd340   2.075       .  S
O337        C348   1.277       .  A
O337       Cd340   2.083       .  S
Zn338       O349   2.006       .  S
Zn338       O351   2.011       .  S
Zn338       O343   1.930       .  S
O339        C350   1.276       .  A
O339       Cd344   2.076       .  S
Cd340       O342   2.077       .  S
Cd340       O343   2.004       .  S
Cd341       O345   2.058       .  S
Cd341       O354   2.047       .  S
Cd341       O343   1.995       .  S
O342        C352   1.275       .  A
O343       Cd344   2.009       .  S
Cd344       O346   2.071       .  S
O345        C352   1.273       .  A
C347        C402   1.482       .  S
C347        O351   1.273       .  A
C348        C475   1.487       .  S
C350        C925   1.475       .  S
C352        C865   1.474       .  S
C353        C815   1.473       .  S
C353        O354   1.272       .  A
O355        C371   1.271       .  A
O355       Zn361   1.991       .  S
C356        C742   1.490       .  S
C356        O372   1.272       .  A
C356        O369   1.276       .  A
O357        C370   1.274       .  A
O357       Cd364   2.070       .  S
O358        C376   1.275       .  A
O358       Cd367   2.070       .  S
O359        C373   1.277       .  A
O359       Cd363   2.083       .  S
O360        C371   1.274       .  A
O360       Cd363   2.069       .  S
Zn361       O372   2.002       .  S
Zn361       O374   2.000       .  S
Zn361       O366   1.927       .  S
O362        C373   1.275       .  A
O362       Cd367   2.064       .  S
Cd363       O365   2.073       .  S
Cd363       O366   2.007       .  S
Cd364       O368   2.074       .  S
Cd364       O377   2.065       .  S
Cd364       O366   2.001       .  S
O365        C375   1.275       .  A
O366       Cd367   1.999       .  S
Cd367       O369   2.088       .  S
O368        C375   1.275       .  A
C370        C995   1.484       .  S
C370        O374   1.272       .  A
C371        C875   1.473       .  S
C373        C522   1.481       .  S
C375        C662   1.475       .  S
C376        C415   1.471       .  S
C376        O377   1.274       .  A
O378        C394   1.274       .  A
O378       Zn384   2.017       .  S
C379        C622   1.487       .  S
C379        O395   1.275       .  A
C379        O392   1.274       .  A
O380        C393   1.275       .  A
O380       Cd387   2.073       .  S
O381        C399   1.273       .  A
O381       Cd390   2.057       .  S
O382        C396   1.274       .  A
O382       Cd386   2.065       .  S
O383        C394   1.274       .  A
O383       Cd386   2.078       .  S
Zn384       O395   2.020       .  S
Zn384       O397   2.013       .  S
Zn384       O389   1.934       .  S
O385        C396   1.272       .  A
O385       Cd390   2.051       .  S
Cd386       O388   2.062       .  S
Cd386       O389   2.003       .  S
Cd387       O391   2.083       .  S
Cd387       O400   2.085       .  S
Cd387       O389   2.008       .  S
O388        C398   1.275       .  A
O389       Cd390   1.996       .  S
Cd390       O392   2.068       .  S
O391        C398   1.277       .  A
C393        C455   1.482       .  S
C393        O397   1.275       .  A
C394        C655   1.487       .  S
C396        C715   1.471       .  S
C398        C795   1.480       .  S
C399        C755   1.472       .  S
C399        O400   1.276       .  A
C401        C402   1.408       .  A
C401        C406   1.400       .  A
C401        F408   1.358       .  S
C402        C403   1.409       .  A
C403        C404   1.397       .  A
C403        F410   1.358       .  S
C404        C405   1.406       .  A
C404        F409   1.358       .  S
C405        C406   1.408       .  A
C406        F407   1.358       .  S
C411        C412   1.410       .  A
C411        C416   1.395       .  A
C411        F418   1.358       .  S
C412        C413   1.409       .  A
C413        C414   1.400       .  A
C413        F420   1.358       .  S
C414        C415   1.405       .  A
C414        F419   1.358       .  S
C415        C416   1.403       .  A
C416        F417   1.358       .  S
C421        C422   1.406       .  A
C421        C426   1.402       .  A
C421        F428   1.358       .  S
C422        C423   1.406       .  A
C423        C424   1.394       .  A
C423        F430   1.358       .  S
C424        C425   1.407       .  A
C424        F429   1.358       .  S
C425        C426   1.409       .  A
C426        F427   1.358       .  S
C431        C432   1.410       .  A
C431        C436   1.396       .  A
C431        F438   1.358       .  S
C432        C433   1.410       .  A
C433        C434   1.402       .  A
C433        F440   1.358       .  S
C434        C435   1.404       .  A
C434        F439   1.358       .  S
C435        C436   1.403       .  A
C436        F437   1.358       .  S
C441        C442   1.411       .  A
C441        C446   1.399       .  A
C441        F448   1.358       .  S
C442        C443   1.410       .  A
C443        C444   1.395       .  A
C443        F450   1.358       .  S
C444        C445   1.402       .  A
C444        F449   1.358       .  S
C445        C446   1.402       .  A
C446        F447   1.358       .  S
C451        C452   1.402       .  A
C451        C456   1.401       .  A
C451        F458   1.358       .  S
C452        C453   1.402       .  A
C453        C454   1.396       .  A
C453        F460   1.358       .  S
C454        C455   1.409       .  A
C454        F459   1.358       .  S
C455        C456   1.411       .  A
C456        F457   1.358       .  S
C461        C462   1.406       .  A
C461        C466   1.396       .  A
C461        F468   1.358       .  S
C462        C463   1.409       .  A
C463        C464   1.403       .  A
C463        F470   1.358       .  S
C464        C465   1.407       .  A
C464        F469   1.358       .  S
C465        C466   1.406       .  A
C466        F467   1.358       .  S
C471        C472   1.405       .  A
C471        C476   1.397       .  A
C471        F478   1.358       .  S
C472        C473   1.405       .  A
C473        C474   1.402       .  A
C473        F480   1.358       .  S
C474        C475   1.410       .  A
C474        F479   1.357       .  S
C475        C476   1.411       .  A
C476        F477   1.358       .  S
C481        C482   1.405       .  A
C481        C486   1.394       .  A
C481        F488   1.358       .  S
C482        C483   1.405       .  A
C483        C484   1.401       .  A
C483        F490   1.357       .  S
C484        C485   1.407       .  A
C484        F489   1.358       .  S
C485        C486   1.407       .  A
C486        F487   1.358       .  S
C491        C492   1.412       .  A
C491        C496   1.395       .  A
C491        F498   1.358       .  S
C492        C493   1.411       .  A
C493        C494   1.402       .  A
C493        F500   1.358       .  S
C494        C495   1.406       .  A
C494        F499   1.358       .  S
C495        C496   1.403       .  A
C496        F497   1.358       .  S
C501        C502   1.412       .  A
C501        C506   1.397       .  A
C501        F508   1.358       .  S
C502        C503   1.411       .  A
C503        C504   1.402       .  A
C503        F510   1.358       .  S
C504        C505   1.406       .  A
C504        F509   1.358       .  S
C505        C506   1.405       .  A
C506        F507   1.358       .  S
C511        C512   1.407       .  A
C511        C516   1.398       .  A
C511        F518   1.358       .  S
C512        C513   1.407       .  A
C513        C514   1.400       .  A
C513        F520   1.358       .  S
C514        C515   1.409       .  A
C514        F519   1.358       .  S
C515        C516   1.409       .  A
C516        F517   1.358       .  S
C521        C522   1.407       .  A
C521        C526   1.403       .  A
C521        F528   1.358       .  S
C522        C523   1.406       .  A
C523        C524   1.395       .  A
C523        F530   1.358       .  S
C524        C525   1.409       .  A
C524        F529   1.358       .  S
C525        C526   1.410       .  A
C526        F527   1.358       .  S
C531        C532   1.410       .  A
C531        C536   1.398       .  A
C531        F538   1.358       .  S
C532        C533   1.410       .  A
C533        C534   1.402       .  A
C533        F540   1.358       .  S
C534        C535   1.408       .  A
C534        F539   1.358       .  S
C535        C536   1.407       .  A
C536        F537   1.358       .  S
C541        C542   1.406       .  A
C541        C546   1.397       .  A
C541        F548   1.358       .  S
C542        C543   1.407       .  A
C543        C544   1.400       .  A
C543        F550   1.358       .  S
C544        C545   1.407       .  A
C544        F549   1.358       .  S
C545        C546   1.409       .  A
C546        F547   1.358       .  S
C551        C552   1.407       .  A
C551        C556   1.395       .  A
C551        F558   1.358       .  S
C552        C553   1.408       .  A
C553        C554   1.403       .  A
C553        F560   1.358       .  S
C554        C555   1.407       .  A
C554        F559   1.358       .  S
C555        C556   1.407       .  A
C556        F557   1.358       .  S
C561        C562   1.405       .  A
C561        C566   1.401       .  A
C561        F568   1.358       .  S
C562        C563   1.404       .  A
C563        C564   1.395       .  A
C563        F570   1.358       .  S
C564        C565   1.408       .  A
C564        F569   1.358       .  S
C565        C566   1.408       .  A
C566        F567   1.358       .  S
C571        C572   1.406       .  A
C571        C576   1.394       .  A
C571        F578   1.358       .  S
C572        C573   1.406       .  A
C573        C574   1.400       .  A
C573        F580   1.358       .  S
C574        C575   1.407       .  A
C574        F579   1.358       .  S
C575        C576   1.406       .  A
C576        F577   1.358       .  S
C581        C582   1.402       .  A
C581        C586   1.395       .  A
C581        F588   1.358       .  S
C582        C583   1.403       .  A
C583        C584   1.401       .  A
C583        F590   1.358       .  S
C584        C585   1.409       .  A
C584        F589   1.358       .  S
C585        C586   1.409       .  A
C586        F587   1.358       .  S
C591        C592   1.403       .  A
C591        C596   1.395       .  A
C591        F598   1.358       .  S
C592        C593   1.403       .  A
C593        C594   1.398       .  A
C593        F600   1.358       .  S
C594        C595   1.407       .  A
C594        F599   1.358       .  S
C595        C596   1.408       .  A
C596        F597   1.358       .  S
C601        C602   1.409       .  A
C601        C606   1.404       .  A
C601        F608   1.358       .  S
C602        C603   1.408       .  A
C603        C604   1.397       .  A
C603        F610   1.358       .  S
C604        C605   1.405       .  A
C604        F609   1.358       .  S
C605        C606   1.405       .  A
C606        F607   1.358       .  S
C611        C612   1.407       .  A
C611        C616   1.395       .  A
C611        F618   1.358       .  S
C612        C613   1.406       .  A
C613        C614   1.402       .  A
C613        F620   1.358       .  S
C614        C615   1.408       .  A
C614        F619   1.358       .  S
C615        C616   1.405       .  A
C616        F617   1.358       .  S
C621        C622   1.411       .  A
C621        C626   1.397       .  A
C621        F628   1.358       .  S
C622        C623   1.411       .  A
C623        C624   1.401       .  A
C623        F630   1.358       .  S
C624        C625   1.405       .  A
C624        F629   1.358       .  S
C625        C626   1.404       .  A
C626        F627   1.358       .  S
C631        C632   1.409       .  A
C631        C636   1.396       .  A
C631        F638   1.358       .  S
C632        C633   1.411       .  A
C633        C634   1.401       .  A
C633        F640   1.358       .  S
C634        C635   1.402       .  A
C634        F639   1.358       .  S
C635        C636   1.403       .  A
C636        F637   1.358       .  S
C641        C642   1.406       .  A
C641        C646   1.396       .  A
C641        F648   1.358       .  S
C642        C643   1.407       .  A
C643        C644   1.401       .  A
C643        F650   1.358       .  S
C644        C645   1.407       .  A
C644        F649   1.358       .  S
C645        C646   1.407       .  A
C646        F647   1.358       .  S
C651        C652   1.402       .  A
C651        C656   1.396       .  A
C651        F658   1.358       .  S
C652        C653   1.404       .  A
C653        C654   1.403       .  A
C653        F660   1.358       .  S
C654        C655   1.412       .  A
C654        F659   1.358       .  S
C655        C656   1.410       .  A
C656        F657   1.358       .  S
C661        C662   1.404       .  A
C661        C666   1.398       .  A
C661        F668   1.358       .  S
C662        C663   1.405       .  A
C663        C664   1.400       .  A
C663        F670   1.358       .  S
C664        C665   1.409       .  A
C664        F669   1.358       .  S
C665        C666   1.411       .  A
C666        F667   1.358       .  S
C671        C672   1.408       .  A
C671        C676   1.403       .  A
C671        F678   1.357       .  S
C672        C673   1.406       .  A
C673        C674   1.393       .  A
C673        F680   1.358       .  S
C674        C675   1.406       .  A
C674        F679   1.358       .  S
C675        C676   1.406       .  A
C676        F677   1.358       .  S
C681        C682   1.404       .  A
C681        C686   1.399       .  A
C681        F688   1.358       .  S
C682        C683   1.405       .  A
C683        C684   1.399       .  A
C683        F690   1.358       .  S
C684        C685   1.408       .  A
C684        F689   1.358       .  S
C685        C686   1.408       .  A
C686        F687   1.358       .  S
C691        C692   1.409       .  A
C691        C696   1.400       .  A
C691        F698   1.358       .  S
C692        C693   1.410       .  A
C693        C694   1.394       .  A
C693        F700   1.358       .  S
C694        C695   1.403       .  A
C694        F699   1.359       .  S
C695        C696   1.405       .  A
C696        F697   1.358       .  S
C701        C702   1.409       .  A
C701        C706   1.399       .  A
C701        F708   1.358       .  S
C702        C703   1.410       .  A
C703        C704   1.395       .  A
C703        F710   1.358       .  S
C704        C705   1.402       .  A
C704        F709   1.358       .  S
C705        C706   1.404       .  A
C706        F707   1.358       .  S
C711        C712   1.406       .  A
C711        C716   1.396   1_655  A
C711        F718   1.358       .  S
C712        C713   1.406   1_655  A
C713        C714   1.396       .  A
C713        F720   1.358       .  S
C714        C715   1.405       .  A
C714        F719   1.358       .  S
C715        C716   1.406       .  A
C716        F717   1.358       .  S
C721        C722   1.404       .  A
C721        C726   1.397       .  A
C721        F728   1.358       .  S
C722        C723   1.405       .  A
C723        C724   1.401       .  A
C723        F730   1.358       .  S
C724        C725   1.410       .  A
C724        F729   1.358       .  S
C725        C726   1.410       .  A
C726        F727   1.358       .  S
C731        C732   1.405   1_455  A
C731        C736   1.397       .  A
C731        F738   1.358   1_455  S
C732        C733   1.404   1_655  A
C733        C734   1.399       .  A
C733        F740   1.358       .  S
C734        C735   1.407       .  A
C734        F739   1.358       .  S
C735        C736   1.407       .  A
C736        F737   1.358       .  S
C741        C742   1.412       .  A
C741        C746   1.402       .  A
C741        F748   1.357       .  S
C742        C743   1.414       .  A
C743        C744   1.396       .  A
C743        F750   1.358       .  S
C744        C745   1.400       .  A
C744        F749   1.358       .  S
C745        C746   1.402       .  A
C746        F747   1.358       .  S
C751        C752   1.409       .  A
C751        C756   1.402       .  A
C751        F758   1.358       .  S
C752        C753   1.409       .  A
C753        C754   1.396       .  A
C753        F760   1.358       .  S
C754        C755   1.403       .  A
C754        F759   1.358       .  S
C755        C756   1.404       .  A
C756        F757   1.358       .  S
C761        C762   1.408       .  A
C761        C766   1.397       .  A
C761        F768   1.358       .  S
C762        C763   1.411       .  A
C763        C764   1.403       .  A
C763        F770   1.358       .  S
C764        C765   1.405       .  A
C764        F769   1.358       .  S
C765        C766   1.406       .  A
C766        F767   1.358       .  S
C771        C772   1.413       .  A
C771        C776   1.400       .  A
C771        F778   1.358       .  S
C772        C773   1.410       .  A
C773        C774   1.400       .  A
C773        F780   1.358       .  S
C774        C775   1.406       .  A
C774        F779   1.358       .  S
C775        C776   1.404       .  A
C776        F777   1.358       .  S
C781        C782   1.411       .  A
C781        C786   1.399       .  A
C781        F788   1.358       .  S
C782        C783   1.407       .  A
C783        C784   1.401       .  A
C783        F790   1.358       .  S
C784        C785   1.405       .  A
C784        F789   1.358       .  S
C785        C786   1.403       .  A
C786        F787   1.358       .  S
C791        C792   1.409       .  A
C791        C796   1.400       .  A
C791        F798   1.358       .  S
C792        C793   1.408       .  A
C793        C794   1.397       .  A
C793        F800   1.358       .  S
C794        C795   1.408       .  A
C794        F799   1.358       .  S
C795        C796   1.406       .  A
C796        F797   1.358       .  S
C801        C802   1.405       .  A
C801        C806   1.395       .  A
C801        F808   1.358       .  S
C802        C803   1.403       .  A
C803        C804   1.400       .  A
C803        F810   1.358       .  S
C804        C805   1.409       .  A
C804        F809   1.358       .  S
C805        C806   1.406       .  A
C806        F807   1.358       .  S
C811        C812   1.407       .  A
C811        C816   1.393       .  A
C811        F818   1.358       .  S
C812        C813   1.408       .  A
C813        C814   1.399       .  A
C813        F820   1.358       .  S
C814        C815   1.405       .  A
C814        F819   1.358       .  S
C815        C816   1.406       .  A
C816        F817   1.358       .  S
C821        C822   1.407       .  A
C821        C826   1.399   1_556  A
C821        F828   1.358       .  S
C822        C823   1.406       .  A
C823        C824   1.394   1_556  A
C823        F830   1.358       .  S
C824        C825   1.406       .  A
C824        F829   1.358       .  S
C825        C826   1.405       .  A
C826        F827   1.358       .  S
C831        C832   1.404       .  A
C831        C836   1.397       .  A
C831        F838   1.358       .  S
C832        C833   1.405       .  A
C833        C834   1.401       .  A
C833        F840   1.358       .  S
C834        C835   1.409       .  A
C834        F839   1.358       .  S
C835        C836   1.410       .  A
C836        F837   1.358       .  S
C841        C842   1.406       .  A
C841        C846   1.402       .  A
C841        F848   1.358       .  S
C842        C843   1.407       .  A
C843        C844   1.398       .  A
C843        F850   1.358       .  S
C844        C845   1.407   1_455  A
C844        F849   1.358   1_455  S
C845        C846   1.408   1_655  A
C846        F847   1.358       .  S
C851        C852   1.406       .  A
C851        C856   1.393   1_556  A
C851        F858   1.358       .  S
C852        C853   1.407       .  A
C853        C854   1.401   1_556  A
C853        F860   1.358       .  S
C854        C855   1.406       .  A
C854        F859   1.358       .  S
C855        C856   1.406       .  A
C856        F857   1.358       .  S
C861        C862   1.411       .  A
C861        C866   1.399       .  A
C861        F868   1.358       .  S
C862        C863   1.409       .  A
C863        C864   1.398       .  A
C863        F870   1.358       .  S
C864        C865   1.405       .  A
C864        F869   1.358       .  S
C865        C866   1.403       .  A
C866        F867   1.358       .  S
C871        C872   1.403   1_455  A
C871        C876   1.394       .  A
C871        F878   1.358   1_455  S
C872        C873   1.405   1_655  A
C873        C874   1.398       .  A
C873        F880   1.358       .  S
C874        C875   1.407       .  A
C874        F879   1.358       .  S
C875        C876   1.408       .  A
C876        F877   1.358       .  S
C881        C882   1.409       .  A
C881        C886   1.404       .  A
C881        F888   1.358   1_565  S
C882        C883   1.406       .  A
C883        C884   1.393       .  A
C883        F890   1.358       .  S
C884        C885   1.405       .  A
C884        F889   1.358       .  S
C885        C886   1.407       .  A
C886        F887   1.358   1_565  S
C891        C892   1.403       .  A
C891        C896   1.400       .  A
C891        F898   1.358       .  S
C892        C893   1.402       .  A
C893        C894   1.396       .  A
C893        F900   1.358       .  S
C894        C895   1.412       .  A
C894        F899   1.358       .  S
C895        C896   1.411       .  A
C896        F897   1.358       .  S
C901        C902   1.411       .  A
C901        C906   1.400       .  A
C901        F908   1.358       .  S
C902        C903   1.410       .  A
C903        C904   1.395       .  A
C903        F910   1.358       .  S
C904        C905   1.404       .  A
C904        F909   1.358       .  S
C905        C906   1.405       .  A
C906        F907   1.358       .  S
C911        C912   1.406   1_545  A
C911        C916   1.394       .  A
C911        F918   1.358       .  S
C912        C913   1.407       .  A
C913        C914   1.404       .  A
C913        F920   1.358       .  S
C914        C915   1.408       .  A
C914        F919   1.358       .  S
C915        C916   1.406   1_565  A
C916        F917   1.358       .  S
C921        C922   1.409       .  A
C921        C926   1.398       .  A
C921        F928   1.358       .  S
C922        C923   1.409       .  A
C923        C924   1.401       .  A
C923        F930   1.358       .  S
C924        C925   1.404       .  A
C924        F929   1.358       .  S
C925        C926   1.404       .  A
C926        F927   1.358       .  S
C931        C932   1.410       .  A
C931        C936   1.398       .  A
C931        F938   1.358       .  S
C932        C933   1.408       .  A
C933        C934   1.400       .  A
C933        F940   1.358       .  S
C934        C935   1.406       .  A
C934        F939   1.358       .  S
C935        C936   1.404       .  A
C936        F937   1.358       .  S
C941        C942   1.406       .  A
C941        C946   1.393       .  A
C941        F948   1.358       .  S
C942        C943   1.405   1_554  A
C943        C944   1.399       .  A
C943        F950   1.358       .  S
C944        C945   1.406   1_566  A
C944        F949   1.358   1_565  S
C945        C946   1.404   1_545  A
C946        F947   1.358   1_565  S
C951        C952   1.405       .  A
C951        C956   1.393       .  A
C951        F958   1.359       .  S
C952        C953   1.407       .  A
C953        C954   1.400       .  A
C953        F960   1.358       .  S
C954        C955   1.406       .  A
C954        F959   1.358       .  S
C955        C956   1.407       .  A
C956        F957   1.358       .  S
C961        C962   1.408       .  A
C961        C966   1.393       .  A
C961        F968   1.358       .  S
C962        C963   1.408       .  A
C963        C964   1.400       .  A
C963        F970   1.358       .  S
C964        C965   1.407       .  A
C964        F969   1.358       .  S
C965        C966   1.405       .  A
C966        F967   1.358       .  S
C971        C972   1.406   1_556  A
C971        C976   1.392   1_565  A
C971        F978   1.358       .  S
C972        C973   1.407       .  A
C973        C974   1.401   1_565  A
C973        F980   1.358       .  S
C974        C975   1.407   1_554  A
C974        F979   1.358       .  S
C975        C976   1.405       .  A
C976        F977   1.358       .  S
C981        C982   1.402       .  A
C981        C986   1.401       .  A
C981        F988   1.358       .  S
C982        C983   1.404       .  A
C983        C984   1.395       .  A
C983        F990   1.359       .  S
C984        C985   1.410       .  A
C984        F989   1.358       .  S
C985        C986   1.412       .  A
C986        F987   1.357       .  S
C991        C992   1.402       .  A
C991        C996   1.400       .  A
C991        F998   1.358       .  S
C992        C993   1.403       .  A
C993        C994   1.394       .  A
C993       F1000   1.358       .  S
C994        C995   1.411       .  A
C994        F999   1.358       .  S
C995        C996   1.412       .  A
C996        F997   1.358       .  S
