geometry optimzed in LAMMPS
_audit_creation_date              2020-11-30 
_audit_creation_method            'lammps2cif' 
_symmetry_space_group_name_H-M    'P1' 
_symmetry_Int_Tables_number       1 
_symmetry_cell_setting            triclinic 
loop_ 
_symmetry_equiv_pos_as_xyz 
  x,y,z 
_cell_length_a                    27.42076166 
_cell_length_b                    27.42741612291659 
_cell_length_c                    54.638492118936796 
_cell_angle_alpha                 89.84867253045833 
_cell_angle_beta                  89.83460100797203 
_cell_angle_gamma                 90.25401979182536 
loop_ 
_atom_site_label 
_atom_site_type_symbol 
_atom_site_fract_x 
_atom_site_fract_y 
_atom_site_fract_z 
_atom_site_charge 
C1          C  0.99903906  0.50080707  0.74979034    -0.00900
O2          O  0.19943074  0.04204602  0.68374155    -0.71300
O3          O  0.30107934  0.03668569  0.63148970    -0.72300
O4          O  0.19960246  0.04112097  0.63210159    -0.60900
O5          O  0.30442786  0.03635623  0.68329071    -0.69300
O6          O  0.30187887  0.45484961  0.68253245    -0.68900
O7          O  0.19450294  0.46004794  0.63310434    -0.60100
O8          O  0.29632633  0.45547450  0.63078865    -0.72600
O9          O  0.19693828  0.46074094  0.68498200    -0.71400
Cu10       Cu  0.25132550  0.04182301  0.65792366     1.04600
Cu11       Cu  0.24726276  0.45492061  0.65812280     1.04300
C12         C  0.18053163  0.00262601  0.69191781     0.94900
C13         C  0.31288550  0.99592588  0.62201870     0.94000
C14         C  0.18183525  0.00125558  0.62390231     0.86200
C15         C  0.32122955  0.99504980  0.69003422     0.92400
O16         O  0.30212283  0.04201126  0.31690402    -0.71300
O17         O  0.19948935  0.03677804  0.36881318    -0.72300
O18         O  0.30127516  0.03949293  0.36864172    -0.60900
O19         O  0.19687127  0.03795601  0.31707089    -0.69300
O20         O  0.19791347  0.45705742  0.31738599    -0.68900
O21         O  0.30419330  0.45923693  0.36731513    -0.60100
O22         O  0.20231636  0.45632778  0.36910628    -0.72600
O23         O  0.30291262  0.46142668  0.31536014    -0.71400
Cu24       Cu  0.24986779  0.04185560  0.34261096     1.04600
Cu25       Cu  0.25195307  0.45570914  0.34200771     1.04300
C26         C  0.32012253  0.50275870  0.30854102     0.94900
C27         C  0.18614526  0.99605419  0.37804006     0.94000
C28         C  0.31770438  0.99915619  0.37691622     0.86200
C29         C  0.17921195  0.49705943  0.31014409     0.92400
O30         O  0.46094642  0.05192719  0.02625463    -0.71300
O31         O  0.46025583  0.45142471  0.97348969    -0.72300
O32         O  0.46187098  0.45037053  0.02589598    -0.60900
O33         O  0.46009588  0.05276241  0.97384515    -0.69300
O34         O  0.04080546  0.05343159  0.97357432    -0.68900
O35         O  0.04255819  0.45074263  0.02517981    -0.60100
O36         O  0.04103422  0.45182105  0.97280281    -0.72600
O37         O  0.04169844  0.05233841  0.02594759    -0.71400
Cu38       Cu  0.45802880  0.50179074  0.99989093     1.04600
Cu39       Cu  0.04434177  0.50225047  0.99935181     1.04300
C40         C  0.00136704  0.06674452  0.03516634     0.94900
C41         C  0.00036674  0.43707460  0.96408032     0.94000
C42         C  0.00252651  0.43555928  0.03447706     0.86200
C43         C  0.00035520  0.06791177  0.96471232     0.92400
O44         O  0.04065329  0.19847373  0.13218990    -0.71300
O45         O  0.04522526  0.30403070  0.18269755    -0.72300
O46         O  0.04051413  0.19895286  0.18428036    -0.60900
O47         O  0.04410415  0.30028671  0.13085395    -0.69300
O48         O  0.46352012  0.30388632  0.13209417    -0.68900
O49         O  0.45964711  0.19987485  0.18341347    -0.60100
O50         O  0.46427073  0.30513233  0.18400620    -0.72600
O51         O  0.46002905  0.20219575  0.13154286    -0.71400
Cu52       Cu  0.04543769  0.25031464  0.15777107     1.04600
Cu53       Cu  0.45908431  0.25287387  0.15804895     1.04300
C54         C  0.99996094  0.18554764  0.12286439     0.94900
C55         C  0.00555855  0.32250312  0.19057905     0.94000
C56         C  0.99936916  0.18163121  0.19132594     0.86200
C57         C  0.00396869  0.31660143  0.12233207     0.92400
C58         C  0.00152140  0.50081460  0.25019018    -0.00900
O59         O  0.45928484  0.19950298  0.86750889    -0.71300
O60         O  0.45692066  0.30402718  0.81683870    -0.72300
O61         O  0.45950198  0.19913986  0.81554073    -0.60900
O62         O  0.45844441  0.30138142  0.86852242    -0.69300
O63         O  0.03922497  0.30353176  0.86746529    -0.68900
O64         O  0.04038756  0.19982301  0.81626490    -0.60100
O65         O  0.03795910  0.30491995  0.81564925    -0.72600
O66         O  0.03998623  0.20193399  0.86796091    -0.71400
Cu67       Cu  0.45571697  0.25091598  0.84184319     1.04600
Cu68       Cu  0.04219023  0.25258501  0.84154155     1.04300
C69         C  0.99970165  0.18604460  0.87677407     0.94900
C70         C  0.99685974  0.32240385  0.80909044     0.94000
C71         C  0.00040819  0.18163636  0.80850297     0.86200
C72         C  0.99899565  0.31713478  0.87699076     0.92400
O73         O  0.45025416  0.03628161  0.47406559    -0.71300
O74         O  0.04979123  0.03720956  0.52706490    -0.72300
O75         O  0.05189545  0.03651423  0.47472437    -0.60900
O76         O  0.44800438  0.03573999  0.52634048    -0.69300
O77         O  0.44812820  0.45476392  0.52594021    -0.68900
O78         O  0.05250368  0.45580468  0.47502521    -0.60100
O79         O  0.04968454  0.45623886  0.52751375    -0.72600
O80         O  0.45070327  0.45556108  0.47359515    -0.71400
Cu81       Cu  0.00000219  0.03921697  0.50054785     1.04600
Cu82       Cu  0.00030002  0.45278729  0.50051999     1.04300
C83         C  0.43604052  0.99607555  0.46474135     0.94900
C84         C  0.06391000  0.99709677  0.53649770     0.94000
C85         C  0.06709948  0.99619427  0.46592653     0.86200
C86         C  0.43301394  0.99503880  0.53505159     0.92400
C87         C  0.51659144  0.41194234  0.19462374     0.25200
C88         C  0.00755994  0.36675202  0.20577743    -0.22900
C89         C  0.00121990  0.36454825  0.23111329     0.20100
C90         C  0.00176395  0.40735109  0.24504972     0.25200
C91         C  0.00581996  0.45419771  0.23380832    -0.22800
C92         C  0.51636739  0.45505542  0.20831013     0.20100
F93         F  0.52901123  0.49664331  0.19639296    -0.12800
F94         F  0.52562924  0.41434832  0.17019273    -0.15100
F95         F  0.99519109  0.40305703  0.26958554    -0.15100
F96         F  0.99424664  0.32089684  0.24239640    -0.12800
C97         C  0.03150148  0.13313925  0.22659511     0.25200
C98         C  0.99771025  0.13849076  0.20768218    -0.22900
C99         C  0.46333112  0.10124325  0.20380958     0.20100
C100        C  0.46466403  0.05814580  0.21759589     0.25200
C101        C  0.00106096  0.05025023  0.23559262    -0.22800
C102        C  0.03216340  0.09079327  0.24094360     0.20100
F103        F  0.06146709  0.09193823  0.26087956    -0.12800
F104        F  0.06301359  0.16996450  0.23186848    -0.15100
F105        F  0.43113109  0.02310807  0.21255427    -0.15100
F106        F  0.42951515  0.10551733  0.18583047    -0.12800
C107        C  0.45624023  0.11803175  0.93332595     0.25200
C108        C  0.00030063  0.09997656  0.94283939    -0.22900
C109        C  0.04401922  0.10957384  0.93001397     0.20100
C110        C  0.04365678  0.13630760  0.90826626     0.25200
C111        C  0.99962524  0.15425143  0.89872285    -0.22800
C112        C  0.45588003  0.14475132  0.91155470     0.20100
F113        F  0.41249003  0.16197223  0.90338766    -0.12800
F114        F  0.41316079  0.10998389  0.94501376    -0.15100
F115        F  0.08673522  0.14442298  0.89659614    -0.15100
F116        F  0.08743659  0.09243708  0.93816647    -0.14200
C117        C  0.04114667  0.35068807  0.91400141     0.25200
C118        C  0.99974150  0.34919611  0.89876568    -0.22900
C119        C  0.45834526  0.37616428  0.90546777     0.20100
C120        C  0.45827618  0.40392197  0.92689467     0.25200
C121        C  0.99959535  0.40523945  0.94219671    -0.22800
C122        C  0.04104416  0.37833726  0.93544860     0.20100
F123        F  0.08140174  0.37802726  0.94979560    -0.12800
F124        F  0.08149137  0.32420287  0.90861009    -0.15100
F125        F  0.41806179  0.43063576  0.93221555    -0.15100
F126        F  0.41805199  0.37642297  0.89108082    -0.12800
C127        C  0.45941779  0.38551839  0.06647988     0.25200
C128        C  0.00328430  0.40294923  0.05618407    -0.22900
C129        C  0.04755661  0.39205971  0.06805884     0.20100
C130        C  0.04780832  0.36503457  0.08977843     0.25200
C131        C  0.00384257  0.34812809  0.10021505    -0.22800
C132        C  0.45966185  0.35862211  0.08818177     0.20100
F133        F  0.41627607  0.34231048  0.09710425    -0.12800
F134        F  0.41582682  0.39446804  0.05566256    -0.15100
F135        F  0.09136045  0.35565077  0.10053744    -0.15100
F136        F  0.09090520  0.40808285  0.05895739    -0.12800
C137        C  0.45880749  0.12328837  0.06435753     0.25200
C138        C  0.00136229  0.09855280  0.05711024    -0.22900
C139        C  0.04295673  0.10159189  0.07211126     0.20100
C140        C  0.04202583  0.12855248  0.09377445     0.25200
C141        C  0.99951706  0.15338882  0.10102828    -0.22800
C142        C  0.45788624  0.15035494  0.08601907     0.20100
F143        F  0.41641059  0.17461871  0.09186286    -0.12800
F144        F  0.41802260  0.12195969  0.05033132    -0.15100
F145        F  0.08293200  0.12990859  0.10770921    -0.15100
F146        F  0.08448889  0.07746070  0.06622709    -0.12800
C147        C  0.39584816  0.45360092  0.42926725     0.25200
C148        C  0.40465950  0.99668383  0.44263832    -0.22900
C149        C  0.38816603  0.04120448  0.43276581     0.20100
C150        C  0.36148397  0.04217674  0.41103910     0.25200
C151        C  0.35028755  0.99865726  0.39858350    -0.22800
C152        C  0.36919028  0.45478116  0.40753054     0.20100
F153        F  0.36178605  0.41218137  0.39546261    -0.12800
F154        F  0.41343915  0.41004854  0.43704898    -0.15100
F155        F  0.34613881  0.08601742  0.40248508    -0.15100
F156        F  0.39768080  0.08423613  0.44406301    -0.12800
C157        C  0.14329945  0.45177874  0.41226451     0.25200
C158        C  0.15408640  0.99560909  0.39997554    -0.22900
C159        C  0.13696927  0.03971968  0.40994901     0.20100
C160        C  0.11018248  0.03997781  0.43168848     0.25200
C161        C  0.09939486  0.99612445  0.44407414    -0.22800
C162        C  0.11625537  0.95193736  0.43404617     0.20100
F163        F  0.10660281  0.40857591  0.44504749    -0.12800
F164        F  0.15873688  0.40829350  0.40337579    -0.15100
F165        F  0.09424715  0.08350531  0.44029699    -0.15100
F166        F  0.14603341  0.08310720  0.39876238    -0.12800
C167        C  0.44337769  0.03833122  0.28232604     0.25200
C168        C  0.45178124  0.50157316  0.26454012    -0.22900
C169        C  0.41147597  0.47019155  0.25916216     0.20100
C170        C  0.36898503  0.47075484  0.27339343     0.25200
C171        C  0.36313725  0.50486422  0.29211835    -0.22800
C172        C  0.40008616  0.03957776  0.29597145     0.20100
F173        F  0.39524686  0.07382392  0.31371125    -0.12800
F174        F  0.47805692  0.07227945  0.28730001    -0.15100
F175        F  0.33254518  0.43873297  0.26821656    -0.15100
F176        F  0.41071458  0.44063157  0.23931978    -0.12800
C177        C  0.08948026  0.48795054  0.30626596     0.25200
C178        C  0.13488360  0.49568534  0.29507113    -0.22900
C179        C  0.13751542  0.00081106  0.26970373     0.20100
C180        C  0.09486643  0.00045875  0.25570763     0.25200
C181        C  0.04777999  0.49699025  0.26682584    -0.22800
C182        C  0.04651023  0.48771406  0.29244879     0.20100
F183        F  0.00469731  0.47590524  0.30438978    -0.12800
F184        F  0.08676448  0.48036800  0.33081462    -0.15100
F185        F  0.09956523  0.00632371  0.23115720    -0.15100
F186        F  0.18139486  0.00641277  0.25844285    -0.12800
C187        C  0.12339688  0.03915327  0.56415713     0.25200
C188        C  0.09456268  0.99805502  0.55869712    -0.22900
C189        C  0.09234831  0.45904023  0.57554668     0.20100
C190        C  0.11922222  0.46084898  0.59719963     0.25200
C191        C  0.14889599  0.00183094  0.60251617    -0.22800
C192        C  0.15030993  0.04101902  0.58580767     0.20100
F193        F  0.17912321  0.08054889  0.58989947    -0.12800
F194        F  0.12642453  0.07728043  0.54830833    -0.15100
F195        F  0.11579339  0.42286764  0.61311529    -0.15100
F196        F  0.06313303  0.41978708  0.57150179    -0.12800
C197        C  0.37275425  0.03564573  0.56273639     0.25200
C198        C  0.40012379  0.99424767  0.55652703    -0.22900
C199        C  0.39841954  0.45281120  0.57190730     0.20100
C200        C  0.37054412  0.45333590  0.59333686     0.25200
C201        C  0.34392828  0.99547732  0.59989655    -0.22800
C202        C  0.34495154  0.03625648  0.58415690     0.20100
F203        F  0.31799960  0.07649542  0.58909986    -0.12800
F204        F  0.37241947  0.07555450  0.54797353    -0.15100
F205        F  0.37064461  0.41336494  0.60805640    -0.15100
F206        F  0.42524356  0.41252343  0.56690442    -0.12800
C207        C  0.46828047  0.13272474  0.77331294     0.25200
C208        C  0.00173846  0.13831562  0.79237034    -0.22900
C209        C  0.03605875  0.10136417  0.79645245     0.20100
C210        C  0.03522507  0.05846049  0.78263417     0.25200
C211        C  0.99924777  0.05030922  0.76444479    -0.22800
C212        C  0.46811863  0.09052280  0.75893380     0.20100
F213        F  0.43925123  0.09144654  0.73883389    -0.12800
F214        F  0.43670751  0.16918792  0.76790425    -0.15100
F215        F  0.06872956  0.02379240  0.78791503    -0.15100
F216        F  0.06937316  0.10573514  0.81467024    -0.12800
C217        C  0.48501529  0.45467227  0.79169631     0.25200
C218        C  0.99490053  0.45415056  0.76615437    -0.22900
C219        C  0.99931393  0.40751990  0.75486355     0.20100
C220        C  0.00066291  0.36470877  0.76876190     0.25200
C221        C  0.99517817  0.36672007  0.79409364    -0.22800
C222        C  0.48606063  0.41153290  0.80538230     0.20100
F223        F  0.47810475  0.41349361  0.82991308    -0.12800
F224        F  0.47198014  0.49584029  0.80366392    -0.15100
F225        F  0.00765158  0.32125061  0.75746170    -0.15100
F226        F  0.00568096  0.40347664  0.73032728    -0.12800
C227        C  0.13178619  0.47135901  0.72733188     0.25200
C228        C  0.13752696  0.00498921  0.70823790    -0.22900
C229        C  0.10066762  0.03932921  0.70396254     0.20100
C230        C  0.05732954  0.03822512  0.71757976     0.25200
C231        C  0.04882992  0.00197787  0.73568082    -0.22800
C232        C  0.08925709  0.47103032  0.74149477     0.20100
F233        F  0.08998886  0.44234900  0.76174513    -0.12800
F234        F  0.16829729  0.44002034  0.73301241    -0.15100
F235        F  0.02259898  0.07161785  0.71220528    -0.15100
F236        F  0.10549624  0.07271374  0.68570754    -0.12800
C237        C  0.40578340  0.49946814  0.74433699     0.25200
C238        C  0.45269902  0.99651586  0.73327811    -0.22900
C239        C  0.45389192  0.98635418  0.70776610     0.20100
C240        C  0.41083183  0.98529995  0.69402106     0.25200
C241        C  0.36548160  0.99314328  0.70515597    -0.22800
C242        C  0.36310215  0.49889465  0.73037057     0.20100
F243        F  0.31927895  0.50481085  0.74158143    -0.12800
F244        F  0.40115421  0.50600020  0.76883432    -0.15100
F245        F  0.41342974  0.97657985  0.66959042    -0.15100
F246        F  0.49573884  0.97485418  0.69590396    -0.12800
C247        C  0.99897344  0.00097332  0.74987802    -0.00900
O248        O  0.19952619  0.54159078  0.68365711    -0.71300
O249        O  0.30115774  0.53618082  0.63141632    -0.72300
O250        O  0.19969128  0.54069328  0.63203049    -0.60900
O251        O  0.30450191  0.53581082  0.68321745    -0.69300
O252        O  0.30180781  0.95539285  0.68263858    -0.68900
O253        O  0.19448815  0.96046857  0.63318732    -0.60100
O254        O  0.29632128  0.95597340  0.63090275    -0.72600
O255        O  0.19688637  0.96119576  0.68506740    -0.71400
Cu256      Cu  0.25141723  0.54133491  0.65784832     1.04600
Cu257      Cu  0.24722527  0.95540461  0.65821961     1.04300
C258        C  0.18059676  0.50218198  0.69182652     0.94900
C259        C  0.31290019  0.49543246  0.62191472     0.94000
C260        C  0.18186839  0.50085250  0.62383177     0.86200
C261        C  0.32129870  0.49449476  0.68994762     0.92400
O262        O  0.30198769  0.54223911  0.31679514    -0.71300
O263        O  0.19953539  0.53694387  0.36879347    -0.72300
O264        O  0.30130460  0.53980881  0.36854098    -0.60900
O265        O  0.19673608  0.53804597  0.31704891    -0.69300
O266        O  0.19795880  0.95696429  0.31737434    -0.68900
O267        O  0.30405731  0.95892669  0.36738980    -0.60100
O268        O  0.20214904  0.95615716  0.36909739    -0.72600
O269        O  0.30297227  0.96120128  0.31543846    -0.71400
Cu270      Cu  0.24981336  0.54205670  0.34254609     1.04600
Cu271      Cu  0.25190067  0.95550819  0.34204105     1.04300
C272        C  0.32024538  0.00252741  0.30864794     0.94900
C273        C  0.18630224  0.49621420  0.37805366     0.94000
C274        C  0.31779453  0.49950250  0.37682208     0.86200
C275        C  0.17932124  0.99699978  0.31013865     0.92400
O276        O  0.46099275  0.55233780  0.02623543    -0.71300
O277        O  0.46038561  0.95105734  0.97348218    -0.72300
O278        O  0.46204689  0.94996481  0.02587691    -0.60900
O279        O  0.46017311  0.55313805  0.97382175    -0.69300
O280        O  0.04089743  0.55363801  0.97356466    -0.68900
O281        O  0.04273446  0.95047519  0.02514968    -0.60100
O282        O  0.04116038  0.95161231  0.97277075    -0.72600
O283        O  0.04174612  0.55259985  0.02593777    -0.71400
Cu284      Cu  0.45807674  0.00139242  0.99989582     1.04600
Cu285      Cu  0.04438401  0.00201856  0.99934092     1.04300
C286        C  0.00143783  0.56707471  0.03515187     0.94900
C287        C  0.00051169  0.93679869  0.96405343     0.94000
C288        C  0.00273299  0.93521447  0.03444606     0.86200
C289        C  0.00047813  0.56817539  0.96469099     0.92400
O290        O  0.04081533  0.69844078  0.13227748    -0.71300
O291        O  0.04539010  0.80404955  0.18275533    -0.72300
O292        O  0.04059271  0.69897692  0.18435873    -0.60900
O293        O  0.04436356  0.80021949  0.13090965    -0.69300
O294        O  0.46377993  0.80387798  0.13213570    -0.68900
O295        O  0.45972408  0.69995265  0.18346518    -0.60100
O296        O  0.46443323  0.80519874  0.18403401    -0.72600
O297        O  0.46019335  0.70223384  0.13160993    -0.71400
Cu298      Cu  0.04560644  0.75029953  0.15784524     1.04600
Cu299      Cu  0.45925148  0.75292183  0.15809698     1.04300
C300        C  0.00011950  0.68556639  0.12293776     0.94900
C301        C  0.00572030  0.82255524  0.19061389     0.94000
C302        C  0.99942574  0.68167773  0.19138231     0.86200
C303        C  0.00424204  0.81652031  0.12236670     0.92400
C304        C  0.00158160  0.00084878  0.25022753    -0.00900
O305        O  0.45934905  0.69944242  0.86740602    -0.71300
O306        O  0.45710299  0.80392264  0.81672086    -0.72300
O307        O  0.45962734  0.69903321  0.81542518    -0.60900
O308        O  0.45860702  0.80130200  0.86840847    -0.69300
O309        O  0.03938665  0.80340251  0.86736842    -0.68900
O310        O  0.04051073  0.69969097  0.81616146    -0.60100
O311        O  0.03814129  0.80480894  0.81554798    -0.72600
O312        O  0.04006845  0.70180822  0.86787626    -0.71400
Cu313      Cu  0.45585315  0.75082762  0.84172833     1.04600
Cu314      Cu  0.04233002  0.75245402  0.84144366     1.04300
C315        C  0.99975165  0.68599678  0.87669028     0.94900
C316        C  0.99704730  0.82230749  0.80898657     0.94000
C317        C  0.00053121  0.68152190  0.80838717     0.86200
C318        C  0.99916092  0.81702382  0.87689080     0.92400
O319        O  0.45028510  0.53623153  0.47396923    -0.71300
O320        O  0.04967868  0.53705893  0.52704602    -0.72300
O321        O  0.05195567  0.53647301  0.47471392    -0.60900
O322        O  0.44788901  0.53555541  0.52624030    -0.69300
O323        O  0.44820094  0.95494747  0.52609860    -0.68900
O324        O  0.05241310  0.95584613  0.47507423    -0.60100
O325        O  0.04976254  0.95638757  0.52757958    -0.72600
O326        O  0.45062830  0.95562146  0.47373548    -0.71400
Cu327      Cu  0.99996712  0.53911413  0.50049138     1.04600
Cu328      Cu  0.00029622  0.95289333  0.50062640     1.04300
C329        C  0.43608958  0.49603161  0.46462990     0.94900
C330        C  0.06380275  0.49693252  0.53646200     0.94000
C331        C  0.06723012  0.49617504  0.46592119     0.86200
C332        C  0.43289388  0.49482003  0.53490949     0.92400
C333        C  0.51657224  0.91202081  0.19463771     0.25200
C334        C  0.00770998  0.86681029  0.20580368    -0.22900
C335        C  0.00148817  0.86458953  0.23114475     0.20100
C336        C  0.00196945  0.90739112  0.24507921     0.25200
C337        C  0.00589702  0.95424808  0.23383621    -0.22800
C338        C  0.51632884  0.95513147  0.20832624     0.20100
F339        F  0.52884139  0.99674341  0.19639667    -0.12800
F340        F  0.52547009  0.91444812  0.17019443    -0.15100
F341        F  0.99547215  0.90307448  0.26961861    -0.15100
F342        F  0.99467607  0.82092006  0.24243441    -0.12800
C343        C  0.03143529  0.63315408  0.22665244     0.25200
C344        C  0.99772445  0.63850935  0.20770724    -0.22900
C345        C  0.46342774  0.60122260  0.20375527     0.20100
C346        C  0.46474862  0.55809252  0.21751352     0.25200
C347        C  0.00106609  0.55020343  0.23555118    -0.22800
C348        C  0.03210510  0.59076361  0.24096169     0.20100
F349        F  0.06134241  0.59188312  0.26092276    -0.12800
F350        F  0.06285729  0.67001641  0.23199360    -0.15100
F351        F  0.43128192  0.52302688  0.21241019    -0.15100
F352        F  0.42971282  0.60549663  0.18572790    -0.12800
C353        C  0.45670775  0.61995613  0.93388319     0.25200
C354        C  0.00049895  0.60016132  0.94279988    -0.22900
C355        C  0.04385616  0.60795969  0.92937749     0.20100
C356        C  0.04339134  0.63465964  0.90761855     0.25200
C357        C  0.99962136  0.65432346  0.89866842    -0.22800
C358        C  0.45624576  0.64664501  0.91210183     0.20100
F359        F  0.41321137  0.66576002  0.90454882    -0.12800
F360        F  0.41404161  0.61376135  0.94621325    -0.15100
F361        F  0.08605745  0.64093697  0.89530601    -0.15100
F362        F  0.08692846  0.58895308  0.93691885    -0.14200
C363        C  0.04139301  0.85069243  0.91386333     0.25200
C364        C  0.99991126  0.84906068  0.89868030    -0.22900
C365        C  0.45844029  0.87584351  0.90545758     0.20100
C366        C  0.45836906  0.90354424  0.92690297     0.25200
C367        C  0.99976394  0.90500346  0.94215113    -0.22800
C368        C  0.04129031  0.87829207  0.93532853     0.20100
F369        F  0.08172965  0.87812087  0.94961842    -0.12800
F370        F  0.08182518  0.82439587  0.90840300    -0.15100
F371        F  0.41806040  0.93005823  0.93229681    -0.15100
F372        F  0.41805981  0.87596582  0.89113185    -0.12800
C373        C  0.45968940  0.88513870  0.06644091     0.25200
C374        C  0.00354094  0.90260235  0.05614598    -0.22900
C375        C  0.04782468  0.89177057  0.06802372     0.20100
C376        C  0.04809162  0.86480678  0.08976250     0.25200
C377        C  0.00412973  0.84792821  0.10021361    -0.22800
C378        C  0.45994835  0.85831462  0.08815942     0.20100
F379        F  0.41657274  0.84196347  0.09707687    -0.12800
F380        F  0.41609243  0.89400043  0.05561128    -0.15100
F381        F  0.09164765  0.85545903  0.10052606    -0.15100
F382        F  0.09116011  0.90780112  0.05890975    -0.12800
C383        C  0.45895177  0.62359995  0.06436796     0.25200
C384        C  0.00148118  0.59884186  0.05710635    -0.22900
C385        C  0.04307402  0.60177889  0.07211417     0.20100
C386        C  0.04215480  0.62864354  0.09380640     0.25200
C387        C  0.99966219  0.65348042  0.10107999    -0.22800
C388        C  0.45804210  0.65056517  0.08605831     0.20100
F389        F  0.41658886  0.67485404  0.09191687    -0.12800
F390        F  0.41818032  0.62238795  0.05032971    -0.15100
F391        F  0.08305562  0.62991193  0.10774736    -0.15100
F392        F  0.08458950  0.57764015  0.06620813    -0.12800
C393        C  0.39381184  0.95320253  0.43008141     0.25200
C394        C  0.40468937  0.49667592  0.44254354    -0.22900
C395        C  0.38617737  0.54100290  0.43341278     0.20100
C396        C  0.35950533  0.54218629  0.41168368     0.25200
C397        C  0.35036867  0.49905657  0.39848785    -0.22800
C398        C  0.36711820  0.95417113  0.40835405     0.20100
F399        F  0.35758240  0.91113907  0.39706485    -0.12800
F400        F  0.40931104  0.90939313  0.43860358    -0.15100
F401        F  0.34197013  0.58576711  0.40390924    -0.15100
F402        F  0.39353956  0.58358923  0.44550258    -0.12800
C403        C  0.14316573  0.95168708  0.41228308     0.25200
C404        C  0.15435189  0.49574527  0.40002628    -0.22900
C405        C  0.13745340  0.53985509  0.41009477     0.20100
C406        C  0.11066636  0.54005872  0.43183280     0.25200
C407        C  0.09964906  0.49615195  0.44411772    -0.22800
C408        C  0.11638389  0.45197510  0.43402459     0.20100
F409        F  0.10663085  0.90858242  0.44514607    -0.12800
F410        F  0.15876402  0.90819890  0.40347040    -0.15100
F411        F  0.09495853  0.58359121  0.44053978    -0.15100
F412        F  0.14673118  0.58329583  0.39900427    -0.12800
C413        C  0.44329267  0.53842470  0.28224180     0.25200
C414        C  0.45186848  0.00152688  0.26460175    -0.22900
C415        C  0.41160183  0.97008227  0.25924318     0.20100
C416        C  0.36914437  0.97056093  0.27350093     0.25200
C417        C  0.36328924  0.00463641  0.29224137    -0.22800
C418        C  0.39995763  0.53977661  0.29584736     0.20100
F419        F  0.39510016  0.57409216  0.31355200    -0.12800
F420        F  0.47800125  0.57233184  0.28722969    -0.15100
F421        F  0.33273811  0.93849644  0.26833089    -0.15100
F422        F  0.41083751  0.94054780  0.23939091    -0.12800
C423        C  0.08960524  0.98794177  0.30627272     0.25200
C424        C  0.13499332  0.99569312  0.29506881    -0.22900
C425        C  0.13742865  0.50076559  0.26970499     0.20100
C426        C  0.09479574  0.50040110  0.25569812     0.25200
C427        C  0.04786315  0.99704217  0.26684870    -0.22800
C428        C  0.04662480  0.98772256  0.29246885     0.20100
F429        F  0.00483901  0.97585179  0.30441847    -0.12800
F430        F  0.08691651  0.98030986  0.33081859    -0.15100
F431        F  0.09952607  0.50627347  0.23115018    -0.15100
F432        F  0.18131839  0.50635824  0.25845294    -0.12800
C433        C  0.12314111  0.53901544  0.56419673     0.25200
C434        C  0.09445368  0.49785031  0.55866563    -0.22900
C435        C  0.09228092  0.95938168  0.57565184     0.20100
C436        C  0.11911766  0.96126123  0.59731491     0.25200
C437        C  0.14887292  0.50148129  0.60246481    -0.22800
C438        C  0.15008974  0.54081166  0.58583726     0.20100
F439        F  0.17873564  0.58043361  0.58999803    -0.12800
F440        F  0.12599640  0.57728311  0.54842640    -0.15100
F441        F  0.11552154  0.92342045  0.61330624    -0.15100
F442        F  0.06291511  0.92021392  0.57167098    -0.12800
C443        C  0.37263728  0.53532405  0.56263067     0.25200
C444        C  0.39996735  0.49393455  0.55636754    -0.22900
C445        C  0.39861881  0.95320912  0.57212331     0.20100
C446        C  0.37069854  0.95380355  0.59353878     0.25200
C447        C  0.34386179  0.49502208  0.59976467    -0.22800
C448        C  0.34488310  0.53586648  0.58406630     0.20100
F449        F  0.31798402  0.57611219  0.58906773    -0.12800
F450        F  0.37230554  0.57529561  0.54791043    -0.15100
F451        F  0.37083228  0.91391203  0.60831271    -0.15100
F452        F  0.42552109  0.91294140  0.56718705    -0.12800
C453        C  0.46839085  0.63260655  0.77318751     0.25200
C454        C  0.00186508  0.63821111  0.79224024    -0.22900
C455        C  0.03621439  0.60127805  0.79630380     0.20100
C456        C  0.03537629  0.55837203  0.78248720     0.25200
C457        C  0.99936828  0.55019545  0.76431533    -0.22800
C458        C  0.46822948  0.59039868  0.75880679     0.20100
F459        F  0.43933382  0.59128858  0.73871681    -0.12800
F460        F  0.43679212  0.66905353  0.76779036    -0.15100
F461        F  0.06888974  0.52371160  0.78776491    -0.15100
F462        F  0.06955566  0.60565904  0.81450866    -0.12800
C463        C  0.48503478  0.95463237  0.79173382     0.25200
C464        C  0.99486992  0.95423742  0.76618773    -0.22900
C465        C  0.99931552  0.90766308  0.75484151     0.20100
C466        C  0.00077164  0.86479051  0.76869286     0.25200
C467        C  0.99535682  0.86668533  0.79403211    -0.22800
C468        C  0.48618520  0.91143684  0.80537237     0.20100
F469        F  0.47826101  0.91327862  0.82990826    -0.12800
F470        F  0.47194622  0.99572673  0.80375028    -0.15100
F471        F  0.00778246  0.82139088  0.75733985    -0.15100
F472        F  0.00560315  0.90374433  0.73029432    -0.12800
C473        C  0.13175503  0.97169865  0.72741405     0.25200
C474        C  0.13757085  0.50458423  0.70812949    -0.22900
C475        C  0.10071662  0.53891389  0.70381802     0.20100
C476        C  0.05737742  0.53787353  0.71743592     0.25200
C477        C  0.04888261  0.50171595  0.73558217    -0.22800
C478        C  0.08921962  0.97129568  0.74157196     0.20100
F479        F  0.08995950  0.94254568  0.76179808    -0.12800
F480        F  0.16828018  0.94035977  0.73307238    -0.15100
F481        F  0.02264272  0.57123942  0.71202370    -0.15100
F482        F  0.10555612  0.57222848  0.68553101    -0.12800
C483        C  0.40572247  0.99960519  0.74442884     0.25200
C484        C  0.45276014  0.49628841  0.73319479    -0.22900
C485        C  0.45395050  0.48586625  0.70770770     0.20100
C486        C  0.41088441  0.48461218  0.69397005     0.25200
C487        C  0.36553677  0.49258736  0.70508212    -0.22800
C488        C  0.36304157  0.99916994  0.73046161     0.20100
F489        F  0.31921645  0.00496467  0.74168765    -0.12800
F490        F  0.40109567  0.00593343  0.76894010    -0.15100
F491        F  0.41347708  0.47558898  0.66956748    -0.15100
F492        F  0.49580367  0.47429352  0.69586887    -0.12800
C493        C  0.49903889  0.50080703  0.74979039    -0.00900
O494        O  0.69943065  0.04204634  0.68374163    -0.71300
O495        O  0.80107932  0.03668574  0.63148972    -0.72300
O496        O  0.69960250  0.04112128  0.63210159    -0.60900
O497        O  0.80442780  0.03635629  0.68329076    -0.69300
O498        O  0.80187890  0.45484957  0.68253243    -0.68900
O499        O  0.69450278  0.46004826  0.63310437    -0.60100
O500        O  0.79632615  0.45547467  0.63078863    -0.72600
O501        O  0.69693831  0.46074116  0.68498212    -0.71400
Cu502      Cu  0.75132552  0.04182319  0.65792369     1.04600
Cu503      Cu  0.74726263  0.45492083  0.65812283     1.04300
C504        C  0.68053153  0.00262663  0.69191789     0.94900
C505        C  0.81288537  0.99592577  0.62201870     0.94000
C506        C  0.68183511  0.00125594  0.62390236     0.86200
C507        C  0.82122941  0.99504980  0.69003422     0.92400
O508        O  0.80212278  0.04201100  0.31690400    -0.71300
O509        O  0.69948934  0.03677820  0.36881325    -0.72300
O510        O  0.80127514  0.03949301  0.36864168    -0.60900
O511        O  0.69687123  0.03795595  0.31707088    -0.69300
O512        O  0.69791377  0.45705756  0.31738605    -0.68900
O513        O  0.80419358  0.45923778  0.36731513    -0.60100
O514        O  0.70231677  0.45632827  0.36910632    -0.72600
O515        O  0.80291269  0.46142704  0.31536018    -0.71400
Cu516      Cu  0.74986777  0.04185563  0.34261095     1.04600
Cu517      Cu  0.75195327  0.45570962  0.34200779     1.04300
C518        C  0.82012273  0.50275909  0.30854098     0.94900
C519        C  0.68614519  0.99605497  0.37804018     0.94000
C520        C  0.81770430  0.99915625  0.37691622     0.86200
C521        C  0.67921197  0.49705944  0.31014420     0.92400
O522        O  0.96094651  0.05192732  0.02625454    -0.71300
O523        O  0.96025587  0.45142482  0.97348954    -0.72300
O524        O  0.96187082  0.45037036  0.02589579    -0.60900
O525        O  0.96009601  0.05276244  0.97384501    -0.69300
O526        O  0.54080526  0.05343165  0.97357433    -0.68900
O527        O  0.54255834  0.45074283  0.02517991    -0.60100
O528        O  0.54103420  0.45182131  0.97280282    -0.72600
O529        O  0.54169837  0.05233843  0.02594773    -0.71400
Cu530      Cu  0.95802879  0.50179065  0.99989082     1.04600
Cu531      Cu  0.54434179  0.50225069  0.99935185     1.04300
C532        C  0.50136726  0.06674450  0.03516646     0.94900
C533        C  0.50036680  0.43707457  0.96408041     0.94000
C534        C  0.50252727  0.43555952  0.03447716     0.86200
C535        C  0.50035498  0.06791168  0.96471241     0.92400
O536        O  0.54065358  0.19847383  0.13218988    -0.71300
O537        O  0.54522546  0.30403064  0.18269759    -0.72300
O538        O  0.54051429  0.19895272  0.18428034    -0.60900
O539        O  0.54410432  0.30028680  0.13085406    -0.69300
O540        O  0.96351996  0.30388626  0.13209421    -0.68900
O541        O  0.95964696  0.19987485  0.18341349    -0.60100
O542        O  0.96427057  0.30513232  0.18400617    -0.72600
O543        O  0.96002873  0.20219570  0.13154283    -0.71400
Cu544      Cu  0.54543797  0.25031462  0.15777111     1.04600
Cu545      Cu  0.95908409  0.25287385  0.15804894     1.04300
C546        C  0.49996065  0.18554782  0.12286433     0.94900
C547        C  0.50555882  0.32250297  0.19057902     0.94000
C548        C  0.49936942  0.18163114  0.19132590     0.86200
C549        C  0.50396898  0.31660157  0.12233219     0.92400
C550        C  0.50152148  0.50081461  0.25019036    -0.00900
O551        O  0.95928513  0.19950289  0.86750888    -0.71300
O552        O  0.95692097  0.30402715  0.81683868    -0.72300
O553        O  0.95950235  0.19913984  0.81554070    -0.60900
O554        O  0.95844461  0.30138124  0.86852236    -0.69300
O555        O  0.53922479  0.30353163  0.86746536    -0.68900
O556        O  0.54038716  0.19982319  0.81626492    -0.60100
O557        O  0.53795879  0.30492009  0.81564928    -0.72600
O558        O  0.53998588  0.20193385  0.86796092    -0.71400
Cu559      Cu  0.95571713  0.25091592  0.84184315     1.04600
Cu560      Cu  0.54218998  0.25258502  0.84154161     1.04300
C561        C  0.49970170  0.18604461  0.87677409     0.94900
C562        C  0.49685936  0.32240388  0.80909041     0.94000
C563        C  0.50040753  0.18163636  0.80850299     0.86200
C564        C  0.49899524  0.31713478  0.87699089     0.92400
O565        O  0.95025411  0.03628158  0.47406556    -0.71300
O566        O  0.54979123  0.03720994  0.52706489    -0.72300
O567        O  0.55189546  0.03651446  0.47472436    -0.60900
O568        O  0.94800431  0.03573976  0.52634050    -0.69300
O569        O  0.94812789  0.45476390  0.52594023    -0.68900
O570        O  0.55250406  0.45580498  0.47502522    -0.60100
O571        O  0.54968490  0.45623926  0.52751378    -0.72600
O572        O  0.95070300  0.45556105  0.47359514    -0.71400
Cu573      Cu  0.50000222  0.03921723  0.50054784     1.04600
Cu574      Cu  0.50030028  0.45278748  0.50051999     1.04300
C575        C  0.93604036  0.99607576  0.46474140     0.94900
C576        C  0.56390988  0.99709712  0.53649776     0.94000
C577        C  0.56709980  0.99619448  0.46592658     0.86200
C578        C  0.93301379  0.99503881  0.53505165     0.92400
C579        C  0.01659135  0.41194235  0.19462370     0.25200
C580        C  0.50756012  0.36675200  0.20577754    -0.22900
C581        C  0.50121983  0.36454818  0.23111333     0.20100
C582        C  0.50176411  0.40735108  0.24504985     0.25200
C583        C  0.50582008  0.45419772  0.23380841    -0.22800
C584        C  0.01636748  0.45505542  0.20831000     0.20100
F585        F  0.02901119  0.49664334  0.19639283    -0.12800
F586        F  0.02562928  0.41434828  0.17019268    -0.15100
F587        F  0.49519111  0.40305698  0.26958561    -0.15100
F588        F  0.49424670  0.32089669  0.24239648    -0.12800
C589        C  0.53150162  0.13313924  0.22659513     0.25200
C590        C  0.49771033  0.13849073  0.20768215    -0.22900
C591        C  0.96333084  0.10124331  0.20380963     0.20100
C592        C  0.96466398  0.05814579  0.21759590     0.25200
C593        C  0.50106098  0.05025025  0.23559264    -0.22800
C594        C  0.53216344  0.09079325  0.24094363     0.20100
F595        F  0.56146710  0.09193819  0.26087962    -0.12800
F596        F  0.56301363  0.16996444  0.23186852    -0.15100
F597        F  0.93113104  0.02310802  0.21255428    -0.15100
F598        F  0.92951479  0.10551737  0.18583055    -0.12800
C599        C  0.95624075  0.11803253  0.93332616     0.25200
C600        C  0.50030029  0.09997643  0.94283939    -0.22900
C601        C  0.54401893  0.10957441  0.93001418     0.20100
C602        C  0.54365670  0.13630815  0.90826640     0.25200
C603        C  0.49962485  0.15425135  0.89872289    -0.22800
C604        C  0.95588031  0.14475203  0.91155494     0.20100
F605        F  0.91249045  0.16197378  0.90338813    -0.12800
F606        F  0.91316135  0.10998542  0.94501422    -0.15100
F607        F  0.58673521  0.14442406  0.89659653    -0.15100
F608        F  0.58743633  0.09243815  0.93816687    -0.14200
C609        C  0.54114632  0.35068778  0.91400169     0.25200
C610        C  0.49974157  0.34919612  0.89876575    -0.22900
C611        C  0.95834522  0.37616389  0.90546770     0.20100
C612        C  0.95827600  0.40392161  0.92689470     0.25200
C613        C  0.49959525  0.40523960  0.94219684    -0.22800
C614        C  0.54104403  0.37833707  0.93544875     0.20100
F615        F  0.58140137  0.37802678  0.94979590    -0.12800
F616        F  0.58149099  0.32420222  0.90861043    -0.15100
F617        F  0.91806152  0.43063492  0.93221566    -0.15100
F618        F  0.91805175  0.37642242  0.89108088    -0.12800
C619        C  0.95941718  0.38551942  0.06648021     0.25200
C620        C  0.50328441  0.40294942  0.05618425    -0.22900
C621        C  0.54755696  0.39206126  0.06805936     0.20100
C622        C  0.54780842  0.36503586  0.08977895     0.25200
C623        C  0.50384291  0.34812830  0.10021510    -0.22800
C624        C  0.95966150  0.35862328  0.08818208     0.20100
F625        F  0.91627549  0.34231298  0.09710503    -0.12800
F626        F  0.91582622  0.39447048  0.05566338    -0.15100
F627        F  0.59136051  0.35565338  0.10053836    -0.15100
F628        F  0.59090523  0.40808569  0.05895837    -0.12800
C629        C  0.95880715  0.12328832  0.06435749     0.25200
C630        C  0.50136220  0.09855281  0.05711027    -0.22900
C631        C  0.54295699  0.10159177  0.07211132     0.20100
C632        C  0.54202567  0.12855218  0.09377451     0.25200
C633        C  0.49951750  0.15338896  0.10102828    -0.22800
C634        C  0.95788622  0.15035466  0.08601915     0.20100
F635        F  0.91641024  0.17461819  0.09186295    -0.12800
F636        F  0.91802230  0.12195940  0.05033133    -0.15100
F637        F  0.58293203  0.12990823  0.10770934    -0.15100
F638        F  0.58448888  0.07746035  0.06622721    -0.12800
C639        C  0.89585146  0.45360216  0.42926606     0.25200
C640        C  0.90465927  0.99668368  0.44263834    -0.22900
C641        C  0.88816456  0.04120453  0.43276631     0.20100
C642        C  0.86148259  0.04217676  0.41103952     0.25200
C643        C  0.85028751  0.99865757  0.39858350    -0.22800
C644        C  0.86919381  0.45478242  0.40752932     0.20100
F645        F  0.86179325  0.41218368  0.39546001    -0.12800
F646        F  0.91344597  0.41005022  0.43704651    -0.15100
F647        F  0.84613618  0.08601742  0.40248595    -0.15100
F648        F  0.89767801  0.08423580  0.44406403    -0.12800
C649        C  0.64329946  0.45177950  0.41226440     0.25200
C650        C  0.65408656  0.99560916  0.39997563    -0.22900
C651        C  0.63696999  0.03972018  0.40994930     0.20100
C652        C  0.61018308  0.03997799  0.43168867     0.25200
C653        C  0.59939512  0.99612478  0.44407425    -0.22800
C654        C  0.61625536  0.95193747  0.43404615     0.20100
F655        F  0.60660233  0.40857613  0.44504720    -0.12800
F656        F  0.65873651  0.40829400  0.40337551    -0.15100
F657        F  0.59424825  0.08350568  0.44029736    -0.15100
F658        F  0.64603444  0.08310756  0.39876279    -0.12800
C659        C  0.94337769  0.03833112  0.28232602     0.25200
C660        C  0.95178126  0.50157326  0.26453998    -0.22900
C661        C  0.91147595  0.47019161  0.25916210     0.20100
C662        C  0.86898512  0.47075496  0.27339340     0.25200
C663        C  0.86313729  0.50486439  0.29211824    -0.22800
C664        C  0.90008612  0.03957765  0.29597149     0.20100
F665        F  0.89524675  0.07382383  0.31371123    -0.12800
F666        F  0.97805683  0.07227942  0.28730000    -0.15100
F667        F  0.83254521  0.43873304  0.26821660    -0.15100
F668        F  0.91071453  0.44063156  0.23931977    -0.12800
C669        C  0.58948033  0.48795027  0.30626606     0.25200
C670        C  0.63488373  0.49568521  0.29507123    -0.22900
C671        C  0.63751545  0.00081116  0.26970373     0.20100
C672        C  0.59486640  0.00045876  0.25570764     0.25200
C673        C  0.54777998  0.49699024  0.26682597    -0.22800
C674        C  0.54651038  0.48771387  0.29244889     0.20100
F675        F  0.50469738  0.47590490  0.30438983    -0.12800
F676        F  0.58676463  0.48036765  0.33081466    -0.15100
F677        F  0.59956521  0.00632397  0.23115722    -0.15100
F678        F  0.68139489  0.00641271  0.25844284    -0.12800
C679        C  0.62339696  0.03915365  0.56415716     0.25200
C680        C  0.59456264  0.99805553  0.55869719    -0.22900
C681        C  0.59234805  0.45904053  0.57554680     0.20100
C682        C  0.61922212  0.46084959  0.59719975     0.25200
C683        C  0.64889587  0.00183134  0.60251618    -0.22800
C684        C  0.65031012  0.04101939  0.58580771     0.20100
F685        F  0.67912361  0.08054914  0.58989947    -0.12800
F686        F  0.62642482  0.07728071  0.54830833    -0.15100
F687        F  0.61579298  0.42286824  0.61311546    -0.15100
F688        F  0.56313264  0.41978780  0.57150192    -0.12800
C689        C  0.87275433  0.03564567  0.56273652     0.25200
C690        C  0.90012372  0.99424735  0.55652703    -0.22900
C691        C  0.89841878  0.45281081  0.57190711     0.20100
C692        C  0.87054319  0.45333585  0.59333665     0.25200
C693        C  0.84392807  0.99547721  0.59989662    -0.22800
C694        C  0.84495184  0.03625642  0.58415703     0.20100
F695        F  0.81800016  0.07649561  0.58910004    -0.12800
F696        F  0.87241983  0.07555448  0.54797373    -0.15100
F697        F  0.87064317  0.41336460  0.60805604    -0.15100
F698        F  0.92524201  0.41252291  0.56690402    -0.12800
C699        C  0.96828072  0.13272458  0.77331298     0.25200
C700        C  0.50173824  0.13831570  0.79237044    -0.22900
C701        C  0.53605841  0.10136425  0.79645254     0.20100
C702        C  0.53522496  0.05846058  0.78263425     0.25200
C703        C  0.49924753  0.05030928  0.76444487    -0.22800
C704        C  0.96811895  0.09052280  0.75893373     0.20100
F705        F  0.93925146  0.09144646  0.73883387    -0.12800
F706        F  0.93670784  0.16918793  0.76790421    -0.15100
F707        F  0.56872936  0.02379253  0.78791510    -0.15100
F708        F  0.56937274  0.10573520  0.81467040    -0.12800
C709        C  0.98501564  0.45467230  0.79169628     0.25200
C710        C  0.49490025  0.45415057  0.76615435    -0.22900
C711        C  0.49931388  0.40751988  0.75486360     0.20100
C712        C  0.50066305  0.36470882  0.76876191     0.25200
C713        C  0.49517789  0.36672004  0.79409366    -0.22800
C714        C  0.98606084  0.41153287  0.80538228     0.20100
F715        F  0.97810514  0.41349358  0.82991305    -0.12800
F716        F  0.97198071  0.49584036  0.80366397    -0.15100
F717        F  0.50765186  0.32125062  0.75746176    -0.15100
F718        F  0.50568096  0.40347665  0.73032735    -0.12800
C719        C  0.63178605  0.47135940  0.72733184     0.25200
C720        C  0.63752693  0.00498944  0.70823804    -0.22900
C721        C  0.60066752  0.03932956  0.70396261     0.20100
C722        C  0.55732949  0.03822539  0.71757985     0.25200
C723        C  0.54882978  0.00197810  0.73568087    -0.22800
C724        C  0.58925712  0.47103049  0.74149492     0.20100
F725        F  0.58998878  0.44234929  0.76174523    -0.12800
F726        F  0.66829719  0.44002056  0.73301251    -0.15100
F727        F  0.52259889  0.07161811  0.71220531    -0.15100
F728        F  0.60549629  0.07271409  0.68570767    -0.12800
C729        C  0.90578358  0.49946818  0.74433700     0.25200
C730        C  0.95269894  0.99651567  0.73327808    -0.22900
C731        C  0.95389186  0.98635408  0.70776610     0.20100
C732        C  0.91083169  0.98529964  0.69402110     0.25200
C733        C  0.86548149  0.99314316  0.70515598    -0.22800
C734        C  0.86310223  0.49889480  0.73037064     0.20100
F735        F  0.81927903  0.50481118  0.74158152    -0.12800
F736        F  0.90115449  0.50600022  0.76883434    -0.15100
F737        F  0.91342953  0.97657955  0.66959050    -0.15100
F738        F  0.99573876  0.97485385  0.69590396    -0.12800
C739        C  0.49897345  0.00097345  0.74987805    -0.00900
O740        O  0.69952608  0.54159100  0.68365720    -0.71300
O741        O  0.80115774  0.53618101  0.63141632    -0.72300
O742        O  0.69969133  0.54069360  0.63203049    -0.60900
O743        O  0.80450188  0.53581077  0.68321753    -0.69300
O744        O  0.80180756  0.95539290  0.68263860    -0.68900
O745        O  0.69448790  0.96046888  0.63318741    -0.60100
O746        O  0.79632097  0.95597342  0.63090285    -0.72600
O747        O  0.69688610  0.96119610  0.68506737    -0.71400
Cu748      Cu  0.75141723  0.54133521  0.65784840     1.04600
Cu749      Cu  0.74722507  0.95540475  0.65821966     1.04300
C750        C  0.68059667  0.50218291  0.69182652     0.94900
C751        C  0.81290002  0.49543273  0.62191471     0.94000
C752        C  0.68186831  0.50085309  0.62383185     0.86200
C753        C  0.82129870  0.49449462  0.68994765     0.92400
O754        O  0.80198797  0.54223947  0.31679508    -0.71300
O755        O  0.69953573  0.53694439  0.36879344    -0.72300
O756        O  0.80130485  0.53980966  0.36854099    -0.60900
O757        O  0.69673620  0.53804613  0.31704887    -0.69300
O758        O  0.69795881  0.95696425  0.31737446    -0.68900
O759        O  0.80405719  0.95892680  0.36738991    -0.60100
O760        O  0.70214905  0.95615734  0.36909756    -0.72600
O761        O  0.80297232  0.96120106  0.31543856    -0.71400
Cu762      Cu  0.74981355  0.54205714  0.34254603     1.04600
Cu763      Cu  0.75190066  0.95550831  0.34204115     1.04300
C764        C  0.82024542  0.00252728  0.30864801     0.94900
C765        C  0.68630247  0.49621557  0.37805363     0.94000
C766        C  0.81779480  0.49950292  0.37682208     0.86200
C767        C  0.67932128  0.99699969  0.31013871     0.92400
O768        O  0.96099263  0.55233762  0.02623529    -0.71300
O769        O  0.96038565  0.95105751  0.97348207    -0.72300
O770        O  0.96204668  0.94996473  0.02587678    -0.60900
O771        O  0.96017325  0.55313802  0.97382175    -0.69300
O772        O  0.54089730  0.55363818  0.97356471    -0.68900
O773        O  0.54273464  0.95047499  0.02514969    -0.60100
O774        O  0.54116035  0.95161248  0.97277077    -0.72600
O775        O  0.54174626  0.55260026  0.02593777    -0.71400
Cu776      Cu  0.95807674  0.00139256  0.99989572     1.04600
Cu777      Cu  0.54438395  0.00201856  0.99934097     1.04300
C778        C  0.50143758  0.56707508  0.03515189     0.94900
C779        C  0.50051146  0.93679873  0.96405351     0.94000
C780        C  0.50273312  0.93521443  0.03444618     0.86200
C781        C  0.50047787  0.56817552  0.96469103     0.92400
O782        O  0.54081536  0.69844071  0.13227766    -0.71300
O783        O  0.54539016  0.80404956  0.18275546    -0.72300
O784        O  0.54059279  0.69897688  0.18435884    -0.60900
O785        O  0.54436379  0.80021960  0.13090977    -0.69300
O786        O  0.96377970  0.80387805  0.13213558    -0.68900
O787        O  0.95972401  0.69995269  0.18346521    -0.60100
O788        O  0.96443321  0.80519886  0.18403397    -0.72600
O789        O  0.96019328  0.70223371  0.13160989    -0.71400
Cu790      Cu  0.54560655  0.75029951  0.15784538     1.04600
Cu791      Cu  0.95925138  0.75292193  0.15809693     1.04300
C792        C  0.50012045  0.68556638  0.12293787     0.94900
C793        C  0.50572037  0.82255506  0.19061399     0.94000
C794        C  0.49942560  0.68167766  0.19138233     0.86200
C795        C  0.50424262  0.81652043  0.12236681     0.92400
C796        C  0.50158157  0.00084879  0.25022756    -0.00900
O797        O  0.95934935  0.69944239  0.86740598    -0.71300
O798        O  0.95710318  0.80392265  0.81672093    -0.72300
O799        O  0.95962749  0.69903319  0.81542512    -0.60900
O800        O  0.95860729  0.80130176  0.86840843    -0.69300
O801        O  0.53938640  0.80340251  0.86736842    -0.68900
O802        O  0.54051053  0.69969095  0.81616150    -0.60100
O803        O  0.53814110  0.80480892  0.81554793    -0.72600
O804        O  0.54006815  0.70180833  0.86787626    -0.71400
Cu805      Cu  0.95585334  0.75082750  0.84172831     1.04600
Cu806      Cu  0.54232980  0.75245405  0.84144367     1.04300
C807        C  0.49975137  0.68599690  0.87669036     0.94900
C808        C  0.49704694  0.82230748  0.80898653     0.94000
C809        C  0.50053090  0.68152182  0.80838718     0.86200
C810        C  0.49916030  0.81702404  0.87689077     0.92400
O811        O  0.95028475  0.53623155  0.47396924    -0.71300
O812        O  0.54967886  0.53705933  0.52704598    -0.72300
O813        O  0.55195597  0.53647331  0.47471399    -0.60900
O814        O  0.94788875  0.53555535  0.52624033    -0.69300
O815        O  0.94820076  0.95494722  0.52609862    -0.68900
O816        O  0.55241342  0.95584637  0.47507431    -0.60100
O817        O  0.54976275  0.95638794  0.52757967    -0.72600
O818        O  0.95062790  0.95562138  0.47373556    -0.71400
Cu819      Cu  0.49996733  0.53911431  0.50049137     1.04600
Cu820      Cu  0.50029649  0.95289363  0.50062642     1.04300
C821        C  0.93608920  0.49603189  0.46462996     0.94900
C822        C  0.56380283  0.49693232  0.53646204     0.94000
C823        C  0.56723048  0.49617524  0.46592126     0.86200
C824        C  0.93289357  0.49481930  0.53490948     0.92400
C825        C  0.01657230  0.91202095  0.19463773     0.25200
C826        C  0.50770987  0.86681024  0.20580378    -0.22900
C827        C  0.50148825  0.86458952  0.23114479     0.20100
C828        C  0.50196924  0.90739118  0.24507930     0.25200
C829        C  0.50589700  0.95424803  0.23383619    -0.22800
C830        C  0.01632884  0.95513153  0.20832618     0.20100
F831        F  0.02884143  0.99674350  0.19639665    -0.12800
F832        F  0.02547012  0.91444828  0.17019441    -0.15100
F833        F  0.49547189  0.90307459  0.26961868    -0.15100
F834        F  0.49467603  0.82092016  0.24243448    -0.12800
C835        C  0.53143506  0.63315409  0.22665253     0.25200
C836        C  0.49772442  0.63850930  0.20770736    -0.22900
C837        C  0.96342779  0.60122276  0.20375525     0.20100
C838        C  0.96474865  0.55809268  0.21751340     0.25200
C839        C  0.50106602  0.55020344  0.23555129    -0.22800
C840        C  0.53210496  0.59076364  0.24096187     0.20100
F841        F  0.56134209  0.59188318  0.26092299    -0.12800
F842        F  0.56285701  0.67001653  0.23199378    -0.15100
F843        F  0.93128203  0.52302704  0.21241005    -0.15100
F844        F  0.92971273  0.60549687  0.18572786    -0.12800
C845        C  0.95670793  0.61995593  0.93388311     0.25200
C846        C  0.50049886  0.60016140  0.94279996    -0.22900
C847        C  0.54385590  0.60795953  0.92937740     0.20100
C848        C  0.54339105  0.63465958  0.90761853     0.25200
C849        C  0.49962109  0.65432373  0.89866855    -0.22800
C850        C  0.95624596  0.64664480  0.91210170     0.20100
F851        F  0.91321164  0.66575959  0.90454860    -0.12800
F852        F  0.91404171  0.61376097  0.94621303    -0.15100
F853        F  0.58605707  0.64093682  0.89530592    -0.15100
F854        F  0.58692825  0.58895271  0.93691867    -0.14200
C855        C  0.54139270  0.85069242  0.91386332     0.25200
C856        C  0.49991113  0.84906082  0.89868033    -0.22900
C857        C  0.95844060  0.87584333  0.90545760     0.20100
C858        C  0.95836910  0.90354400  0.92690297     0.25200
C859        C  0.49976385  0.90500354  0.94215114    -0.22800
C860        C  0.54129006  0.87829190  0.93532862     0.20100
F861        F  0.58172932  0.87812068  0.94961853    -0.12800
F862        F  0.58182488  0.82439560  0.90840305    -0.15100
F863        F  0.91806038  0.93005788  0.93229682    -0.15100
F864        F  0.91806002  0.87596540  0.89113193    -0.12800
C865        C  0.95968905  0.88514000  0.06644122     0.25200
C866        C  0.50354135  0.90260212  0.05614602    -0.22900
C867        C  0.54782474  0.89177163  0.06802424     0.20100
C868        C  0.54809183  0.86480773  0.08976295     0.25200
C869        C  0.50412979  0.84792792  0.10021364    -0.22800
C870        C  0.95994784  0.85831601  0.08815978     0.20100
F871        F  0.91657218  0.84196641  0.09707772    -0.12800
F872        F  0.91609179  0.89400301  0.05561204    -0.15100
F873        F  0.59164760  0.85546112  0.10052694    -0.15100
F874        F  0.59116020  0.90780334  0.05891065    -0.12800
C875        C  0.95895181  0.62359961  0.06436793     0.25200
C876        C  0.50148149  0.59884214  0.05710642    -0.22900
C877        C  0.54307390  0.60177917  0.07211419     0.20100
C878        C  0.54215515  0.62864356  0.09380651     0.25200
C879        C  0.49966202  0.65348064  0.10108002    -0.22800
C880        C  0.95804172  0.65056512  0.08605819     0.20100
F881        F  0.91658879  0.67485391  0.09191677    -0.12800
F882        F  0.91818014  0.62238756  0.05032967    -0.15100
F883        F  0.58305569  0.62991179  0.10774745    -0.15100
F884        F  0.58458957  0.57764040  0.06620812    -0.12800
C885        C  0.89381279  0.95320274  0.43008102     0.25200
C886        C  0.90468921  0.49667602  0.44254359    -0.22900
C887        C  0.88617398  0.54100285  0.43341404     0.20100
C888        C  0.85950204  0.54218626  0.41168493     0.25200
C889        C  0.85036878  0.49905761  0.39848791    -0.22800
C890        C  0.86711933  0.95417137  0.40835357     0.20100
F891        F  0.85758483  0.91113964  0.39706391    -0.12800
F892        F  0.90931329  0.90939334  0.43860272    -0.15100
F893        F  0.84196328  0.58576671  0.40391175    -0.15100
F894        F  0.89353263  0.58358818  0.44550517    -0.12800
C895        C  0.64316546  0.95168747  0.41228305     0.25200
C896        C  0.65435229  0.49574552  0.40002630    -0.22900
C897        C  0.63745428  0.53985596  0.41009496     0.20100
C898        C  0.61066733  0.54005909  0.43183305     0.25200
C899        C  0.59964936  0.49615248  0.44411776    -0.22800
C900        C  0.61638389  0.45197530  0.43402449     0.20100
F901        F  0.60663027  0.90858264  0.44514594    -0.12800
F902        F  0.65876334  0.90819908  0.40347021    -0.15100
F903        F  0.59496003  0.58359174  0.44054024    -0.15100
F904        F  0.64673250  0.58329654  0.39900472    -0.12800
C905        C  0.94329261  0.53842491  0.28224162     0.25200
C906        C  0.95186842  0.00152693  0.26460175    -0.22900
C907        C  0.91160196  0.97008213  0.25924319     0.20100
C908        C  0.86914448  0.97056080  0.27350100     0.25200
C909        C  0.86328931  0.00463617  0.29224137    -0.22800
C910        C  0.89995770  0.53977681  0.29584723     0.20100
F911        F  0.89510017  0.57409236  0.31355189    -0.12800
F912        F  0.97800113  0.57233217  0.28722952    -0.15100
F913        F  0.83273826  0.93849620  0.26833100    -0.15100
F914        F  0.91083756  0.94054777  0.23939091    -0.12800
C915        C  0.58960523  0.98794159  0.30627272     0.25200
C916        C  0.63499332  0.99569292  0.29506881    -0.22900
C917        C  0.63742869  0.50076584  0.26970511     0.20100
C918        C  0.59479587  0.50040114  0.25569819     0.25200
C919        C  0.54786313  0.99704217  0.26684867    -0.22800
C920        C  0.54662468  0.98772252  0.29246887     0.20100
F921        F  0.50483889  0.97585175  0.30441848    -0.12800
F922        F  0.58691655  0.98030960  0.33081857    -0.15100
F923        F  0.59952608  0.50627387  0.23115027    -0.15100
F924        F  0.68131843  0.50635860  0.25845302    -0.12800
C925        C  0.62314126  0.53901571  0.56419677     0.25200
C926        C  0.59445387  0.49785103  0.55866568    -0.22900
C927        C  0.59228076  0.95938209  0.57565190     0.20100
C928        C  0.61911727  0.96126186  0.59731510     0.25200
C929        C  0.64887281  0.50148155  0.60246490    -0.22800
C930        C  0.65008992  0.54081232  0.58583734     0.20100
F931        F  0.67873565  0.58043412  0.58999812    -0.12800
F932        F  0.62599668  0.57728354  0.54842637    -0.15100
F933        F  0.61552117  0.92342107  0.61330641    -0.15100
F934        F  0.56291464  0.92021458  0.57167116    -0.12800
C935        C  0.87263752  0.53532416  0.56263078     0.25200
C936        C  0.89996701  0.49393483  0.55636756    -0.22900
C937        C  0.89861830  0.95320881  0.57212328     0.20100
C938        C  0.87069823  0.95380324  0.59353876     0.25200
C939        C  0.84386166  0.49502216  0.59976467    -0.22800
C940        C  0.84488325  0.53586696  0.58406640     0.20100
F941        F  0.81798477  0.57611286  0.58906796    -0.12800
F942        F  0.87230616  0.57529610  0.54791065    -0.15100
F943        F  0.87083157  0.91391166  0.60831261    -0.15100
F944        F  0.92552033  0.91294087  0.56718694    -0.12800
C945        C  0.96839113  0.63260656  0.77318749     0.25200
C946        C  0.50186487  0.63821110  0.79224030    -0.22900
C947        C  0.53621422  0.60127805  0.79630377     0.20100
C948        C  0.53537592  0.55837191  0.78248732     0.25200
C949        C  0.49936803  0.55019543  0.76431535    -0.22800
C950        C  0.96822952  0.59039859  0.75880680     0.20100
F951        F  0.93933393  0.59128855  0.73871680    -0.12800
F952        F  0.93679224  0.66905340  0.76779043    -0.15100
F953        F  0.56888950  0.52371155  0.78776497    -0.15100
F954        F  0.56955540  0.60565891  0.81450872    -0.12800
C955        C  0.98503499  0.95463235  0.79173386     0.25200
C956        C  0.49486994  0.95423753  0.76618776    -0.22900
C957        C  0.49931560  0.90766315  0.75484147     0.20100
C958        C  0.50077164  0.86479066  0.76869289     0.25200
C959        C  0.49535659  0.86668539  0.79403206    -0.22800
C960        C  0.98618546  0.91143682  0.80537232     0.20100
F961        F  0.97826139  0.91327867  0.82990827    -0.12800
F962        F  0.97194656  0.99572671  0.80375032    -0.15100
F963        F  0.50778280  0.82139113  0.75733986    -0.15100
F964        F  0.50560320  0.90374442  0.73029429    -0.12800
C965        C  0.63175489  0.97169889  0.72741410     0.25200
C966        C  0.63757082  0.50458419  0.70812956    -0.22900
C967        C  0.60071654  0.53891436  0.70381803     0.20100
C968        C  0.55737744  0.53787359  0.71743606     0.25200
C969        C  0.54888254  0.50171610  0.73558211    -0.22800
C970        C  0.58921958  0.97129587  0.74157205     0.20100
F971        F  0.58995947  0.94254607  0.76179819    -0.12800
F972        F  0.66828005  0.94035993  0.73307239    -0.15100
F973        F  0.52264261  0.57123947  0.71202380    -0.15100
F974        F  0.60555610  0.57222887  0.68553116    -0.12800
C975        C  0.90572251  0.99960514  0.74442888     0.25200
C976        C  0.95276035  0.49628843  0.73319481    -0.22900
C977        C  0.95395063  0.48586625  0.70770766     0.20100
C978        C  0.91088448  0.48461215  0.69397008     0.25200
C979        C  0.86553682  0.49258735  0.70508215    -0.22800
C980        C  0.86304162  0.99917009  0.73046161     0.20100
F981        F  0.81921670  0.00496496  0.74168774    -0.12800
F982        F  0.90109585  0.00593347  0.76894016    -0.15100
F983        F  0.91347705  0.47558898  0.66956749    -0.15100
F984        F  0.99580377  0.47429349  0.69586882    -0.12800
loop_ 
_geom_bond_atom_site_label_1 
_geom_bond_atom_site_label_2 
_geom_bond_distance 
_geom_bond_site_symmetry_2 
_ccdc_geom_bond_type 
C1          C218   1.563       .  S
C1          C457   1.572       .  S
C1          C477   1.570   1_655  S
C1          C976   1.566       .  S
O2          Cu10   2.001       .  S
O2           C12   1.276       .  A
O3          Cu10   1.990       .  S
O3           C13   1.276   1_545  A
O4          Cu10   2.003       .  S
O4           C14   1.278       .  A
O5          Cu10   2.019       .  S
O5           C15   1.279   1_545  A
O6          Cu11   2.008       .  S
O6          C261   1.276       .  A
O7          Cu11   1.998       .  S
O7          C260   1.277       .  A
O8          Cu11   2.007       .  S
O8          C259   1.278       .  A
O9          Cu11   2.019       .  S
O9          C258   1.280       .  A
Cu10       Cu257   2.372   1_545  S
Cu11       Cu256   2.372       .  S
C12         O255   1.280   1_545  A
C12         C228   1.478       .  S
C13         O254   1.278       .  A
C13         C201   1.476       .  S
C14         O253   1.277   1_545  A
C14         C191   1.479       .  S
C15         O252   1.276       .  A
C15         C241   1.471       .  S
O16         Cu24   2.004       .  S
O16         C272   1.276       .  A
O17         Cu24   1.991       .  S
O17          C27   1.276   1_545  A
O18         Cu24   2.006       .  S
O18          C28   1.278   1_545  A
O19         Cu24   2.020       .  S
O19         C275   1.279   1_545  A
O20         Cu25   2.005       .  S
O20          C29   1.276       .  A
O21         Cu25   1.996       .  S
O21         C274   1.276       .  A
O22         Cu25   2.008       .  S
O22         C273   1.278       .  A
O23         Cu25   2.020       .  S
O23          C26   1.280       .  A
Cu24       Cu271   2.369   1_545  S
Cu25       Cu270   2.370       .  S
C26         O262   1.276       .  A
C26         C171   1.481       .  S
C27         O268   1.279       .  A
C27         C158   1.484       .  S
C28         O267   1.276       .  A
C28         C151   1.485       .  S
C29         O265   1.279       .  A
C29         C178   1.471       .  S
O30        Cu284   2.003   1_554  S
O30         C532   1.277       .  A
O31         Cu38   2.001       .  S
O31         C533   1.277       .  A
O32         Cu38   2.003   1_554  S
O32         C534   1.278       .  A
O33        Cu284   2.001       .  S
O33         C535   1.277       .  A
O34        Cu285   1.993       .  S
O34          C43   1.276       .  A
O35         Cu39   1.995   1_554  S
O35          C42   1.276       .  A
O36         Cu39   2.009       .  S
O36          C41   1.278       .  A
O37        Cu285   2.009   1_554  S
O37          C40   1.279       .  A
Cu38        O276   2.003   1_556  S
Cu38        O279   2.001       .  S
Cu38       Cu531   2.367       .  S
Cu39        O280   1.993       .  S
Cu39        O283   2.008   1_556  S
Cu39       Cu530   2.367   1_455  S
C40         O522   1.277   1_455  A
C40         C138   1.485       .  S
C41         O523   1.277   1_455  A
C41         C121   1.483   1_455  S
C42         O524   1.278   1_455  A
C42         C128   1.484       .  S
C43         O525   1.277   1_455  A
C43         C108   1.482       .  S
O44         Cu52   2.001       .  S
O44          C54   1.277   1_455  A
O45         Cu52   2.009       .  S
O45          C55   1.276       .  A
O46         Cu52   2.022       .  S
O46          C56   1.280   1_455  A
O47         Cu52   2.008       .  S
O47          C57   1.278       .  A
O48         Cu53   1.993       .  S
O48         C549   1.276       .  A
O49         Cu53   2.006       .  S
O49         C548   1.277       .  A
O50         Cu53   2.024       .  S
O50         C547   1.279       .  A
O51         Cu53   2.010       .  S
O51         C546   1.279       .  A
Cu52       Cu545   2.369   1_455  S
Cu53       Cu544   2.369       .  S
C54         O543   1.279       .  A
C54         C141   1.486       .  S
C55         O542   1.279   1_455  A
C55          C88   1.473       .  S
C56         O541   1.277       .  A
C56          C98   1.481       .  S
C57         O540   1.276   1_455  A
C57         C131   1.484       .  S
C58          C91   1.567       .  S
C58         C181   1.566       .  S
C58         C347   1.571       .  S
C58         C660   1.571   1_455  S
O59         Cu67   1.989       .  S
O59         C561   1.275       .  A
O60         Cu67   1.995       .  S
O60         C562   1.274       .  A
O61         Cu67   2.026       .  S
O61         C563   1.281       .  A
O62         Cu67   2.014       .  S
O62         C564   1.279       .  A
O63         Cu68   1.994       .  S
O63          C72   1.276   1_455  A
O64         Cu68   2.004       .  S
O64          C71   1.276       .  A
O65         Cu68   2.017       .  S
O65          C70   1.279   1_455  A
O66         Cu68   2.001       .  S
O66          C69   1.278   1_455  A
Cu67       Cu560   2.371       .  S
Cu68       Cu559   2.371   1_455  S
C69         O551   1.275       .  A
C69         C111   1.481       .  S
C70         O552   1.274       .  A
C70         C221   1.465       .  S
C71         O553   1.281   1_455  A
C71         C208   1.482       .  S
C72         O554   1.279       .  A
C72         C118   1.481       .  S
O73        Cu573   1.993       .  S
O73          C83   1.276   1_545  A
O74         Cu81   1.994       .  S
O74          C84   1.276   1_545  A
O75         Cu81   2.003       .  S
O75          C85   1.278   1_545  A
O76        Cu573   2.004       .  S
O76          C86   1.278   1_545  A
O77        Cu574   1.992       .  S
O77         C332   1.276       .  A
O78         Cu82   1.996       .  S
O78         C331   1.276       .  A
O79         Cu82   2.007       .  S
O79         C330   1.279       .  A
O80        Cu574   2.008       .  S
O80         C329   1.279       .  A
Cu81        O565   1.993   1_455  S
Cu81        O568   2.004   1_455  S
Cu81       Cu328   2.368   1_545  S
Cu82        O569   1.992   1_455  S
Cu82        O572   2.008   1_455  S
Cu82       Cu327   2.368   1_455  S
C83         O326   1.279       .  A
C83         C148   1.485       .  S
C84         O325   1.279       .  A
C84         C188   1.478       .  S
C85         O324   1.276       .  A
C85         C161   1.485       .  S
C86         O323   1.276       .  A
C86         C198   1.478       .  S
C87          C92   1.401       .  A
C87         C580   1.400       .  A
C87          F94   1.358       .  S
C88          C89   1.396       .  A
C88         C579   1.400       .  A
C89          C90   1.401       .  A
C89          F96   1.358   1_455  S
C90          C91   1.426       .  A
C90          F95   1.357   1_455  S
C91         C584   1.422       .  A
C92         C583   1.422       .  A
C92          F93   1.355       .  S
C97          C98   1.398   1_455  A
C97         C102   1.400       .  A
C97         F104   1.358       .  S
C98         C591   1.404       .  A
C99         C100   1.401       .  A
C99         C590   1.404       .  A
C99         F106   1.358       .  S
C100        C593   1.420       .  A
C100        F105   1.356       .  S
C101        C304   1.572       .  S
C101        C102   1.430       .  A
C101        C592   1.420   1_455  A
C102        F103   1.356       .  S
C107        C112   1.396       .  A
C107        C600   1.408       .  A
C107        F114   1.358       .  S
C108        C109   1.410       .  A
C108        C599   1.408   1_455  A
C109        C110   1.395       .  A
C109        F116   1.358       .  S
C110        C111   1.407   1_455  A
C110        F115   1.358       .  S
C111        C604   1.411       .  A
C112        C603   1.411       .  A
C112        F113   1.358       .  S
C117        C118   1.410   1_455  A
C117        C122   1.397       .  A
C117        F124   1.358       .  S
C118        C611   1.406       .  A
C119        C120   1.398       .  A
C119        C610   1.406       .  A
C119        F126   1.358       .  S
C120        C613   1.410       .  A
C120        F125   1.358       .  S
C121        C122   1.407   1_655  A
C121        C612   1.410       .  A
C122        F123   1.358       .  S
C127        C132   1.395       .  A
C127        C620   1.408       .  A
C127        F134   1.358       .  S
C128        C129   1.411       .  A
C128        C619   1.408   1_455  A
C129        C130   1.398       .  A
C129        F136   1.358       .  S
C130        C131   1.408       .  A
C130        F135   1.358       .  S
C131        C624   1.410   1_455  A
C132        C623   1.410       .  A
C132        F133   1.358       .  S
C137        C142   1.399       .  A
C137        C630   1.409       .  A
C137        F144   1.358       .  S
C138        C139   1.409       .  A
C138        C629   1.409   1_455  A
C139        C140   1.398       .  A
C139        F146   1.358       .  S
C140        C141   1.409   1_455  A
C140        F145   1.358       .  S
C141        C634   1.410       .  A
C142        C633   1.410       .  A
C142        F143   1.358       .  S
C147        C152   1.397       .  A
C147        C394   1.408       .  A
C147        F154   1.358       .  S
C148        C149   1.410   1_565  A
C148        C393   1.408       .  A
C149        C150   1.397       .  A
C149        F156   1.358       .  S
C150        C151   1.409   1_545  A
C150        F155   1.358       .  S
C151        C398   1.411       .  A
C152        C397   1.410       .  A
C152        F153   1.358       .  S
C157        C404   1.409       .  A
C157        C408   1.398       .  A
C157        F164   1.358       .  S
C158        C159   1.410   1_565  A
C158        C403   1.409       .  A
C159        C160   1.395       .  A
C159        F166   1.358       .  S
C160        C161   1.408   1_545  A
C160        F165   1.358       .  S
C161        C162   1.411       .  A
C162        C403   1.398       .  A
C162        F409   1.358       .  S
F163        C408   1.358       .  S
C167        C172   1.401       .  A
C167        C414   1.420       .  A
C167        F174   1.356       .  S
C168        C550   1.571       .  S
C168        C169   1.429       .  A
C168        C413   1.420       .  A
C169        C170   1.399       .  A
C169        F176   1.356       .  S
C170        C171   1.398       .  A
C170        F175   1.358       .  S
C171        C418   1.404       .  A
C172        C417   1.404       .  A
C172        F173   1.358       .  S
C177        C178   1.401       .  A
C177        C182   1.401       .  A
C177        F184   1.359       .  S
C178        C425   1.394       .  A
C179        C180   1.399       .  A
C179        C424   1.394   1_545  A
C179        F186   1.358       .  S
C180        C427   1.426   1_545  A
C180        F185   1.356       .  S
C181        C182   1.423       .  A
C181        C426   1.426       .  A
C182        F183   1.355       .  S
C187        C188   1.407   1_545  A
C187        C192   1.397       .  A
C187        F194   1.358       .  S
C188        C435   1.408       .  A
C189        C190   1.396       .  A
C189        C434   1.408       .  A
C189        F196   1.358       .  S
C190        C437   1.407       .  A
C190        F195   1.358       .  S
C191        C192   1.409       .  A
C191        C436   1.407   1_545  A
C192        F193   1.358       .  S
C197        C198   1.406   1_545  A
C197        C202   1.395       .  A
C197        F204   1.358       .  S
C198        C445   1.410       .  A
C199        C200   1.397       .  A
C199        C444   1.410       .  A
C199        F206   1.358       .  S
C200        C447   1.405       .  A
C200        F205   1.358       .  S
C201        C202   1.409   1_565  A
C201        C446   1.405       .  A
C202        F203   1.358       .  S
C207        C212   1.401       .  A
C207        C700   1.398       .  A
C207        F214   1.358       .  S
C208        C209   1.404       .  A
C208        C699   1.398   1_455  A
C209        C210   1.400       .  A
C209        F216   1.358       .  S
C210        C211   1.420   1_455  A
C210        F215   1.356       .  S
C211        C247   1.572       .  S
C211        C704   1.430       .  A
C212        C703   1.430       .  A
C212        F213   1.356       .  S
C217        C222   1.398       .  A
C217        C710   1.421       .  A
C217        F224   1.355       .  S
C218        C219   1.427       .  A
C218        C709   1.421       .  A
C219        C220   1.397   1_655  A
C219        F226   1.356   1_655  S
C220        C221   1.393   1_455  A
C220        F225   1.358       .  S
C221        C714   1.400       .  A
C222        C713   1.400       .  A
C222        F223   1.359       .  S
C227        C232   1.398       .  A
C227        C474   1.396       .  A
C227        F234   1.358       .  S
C228        C229   1.404       .  A
C228        C473   1.396   1_545  A
C229        C230   1.400       .  A
C229        F236   1.358       .  S
C230        C231   1.419       .  A
C230        F235   1.356       .  S
C231        C247   1.570   1_455  S
C231        C478   1.431   1_545  A
C232        C477   1.431       .  A
C232        F233   1.356       .  S
C237        C242   1.399       .  A
C237        C484   1.426       .  A
C237        F244   1.357       .  S
C238        C739   1.566   1_565  S
C238        C239   1.423       .  A
C238        C483   1.426       .  A
C239        C240   1.401       .  A
C239        F246   1.355       .  S
C240        C241   1.401       .  A
C240        F245   1.358       .  S
C241        C488   1.394       .  A
C242        C487   1.394       .  A
C242        F243   1.358       .  S
C247        C464   1.563   1_545  S
C247        C730   1.566   1_545  S
O248       Cu256   2.000       .  S
O248        C258   1.276       .  A
O249       Cu256   1.989       .  S
O249        C259   1.276       .  A
O250       Cu256   2.003       .  S
O250        C260   1.278       .  A
O251       Cu256   2.019       .  S
O251        C261   1.279       .  A
O252       Cu257   2.008       .  S
O253       Cu257   1.998       .  S
O254       Cu257   2.007       .  S
O255       Cu257   2.018       .  S
C258        C474   1.478       .  S
C259        C447   1.476       .  S
C260        C437   1.479       .  S
C261        C487   1.471       .  S
O262       Cu270   2.004       .  S
O263       Cu270   1.991       .  S
O263        C273   1.276       .  A
O264       Cu270   2.007       .  S
O264        C274   1.278       .  A
O265       Cu270   2.020       .  S
O266       Cu271   2.004       .  S
O266        C275   1.276       .  A
O267       Cu271   1.996       .  S
O268       Cu271   2.009       .  S
O269       Cu271   2.021       .  S
O269        C272   1.280   1_565  A
C272        C417   1.481       .  S
C273        C404   1.484       .  S
C274        C397   1.485       .  S
C275        C424   1.470       .  S
O276        C778   1.277       .  A
O277       Cu284   2.001   1_565  S
O277        C779   1.277       .  A
O278       Cu284   2.002   1_564  S
O278        C780   1.278       .  A
O279        C781   1.278       .  A
O280        C289   1.276       .  A
O281       Cu285   1.994   1_564  S
O281        C288   1.276       .  A
O282       Cu285   2.009   1_565  S
O282        C287   1.278       .  A
O283        C286   1.278       .  A
Cu284      Cu777   2.367       .  S
Cu285      Cu776   2.367   1_455  S
C286        O768   1.277   1_455  A
C286        C384   1.484       .  S
C287        O769   1.277   1_455  A
C287        C367   1.483   1_455  S
C288        O770   1.278   1_455  A
C288        C374   1.484       .  S
C289        O771   1.278   1_455  A
C289        C354   1.481       .  S
O290       Cu298   2.000       .  S
O290        C300   1.277       .  A
O291       Cu298   2.009       .  S
O291        C301   1.276       .  A
O292       Cu298   2.021       .  S
O292        C302   1.280   1_455  A
O293       Cu298   2.008       .  S
O293        C303   1.278       .  A
O294       Cu299   1.992       .  S
O294        C795   1.276       .  A
O295       Cu299   2.005       .  S
O295        C794   1.277       .  A
O296       Cu299   2.023       .  S
O296        C793   1.279       .  A
O297       Cu299   2.010       .  S
O297        C792   1.279       .  A
Cu298      Cu791   2.369   1_455  S
Cu299      Cu790   2.369       .  S
C300        O789   1.279   1_455  A
C300        C387   1.485   1_455  S
C301        O788   1.279   1_455  A
C301        C334   1.473       .  S
C302        O787   1.277       .  A
C302        C344   1.481       .  S
C303        O786   1.276   1_455  A
C303        C377   1.484       .  S
C304        C337   1.567   1_545  S
C304        C906   1.571   1_455  S
C304        C427   1.566   1_545  S
O305       Cu313   1.989       .  S
O305        C807   1.275       .  A
O306       Cu313   1.994       .  S
O306        C808   1.274       .  A
O307       Cu313   2.026       .  S
O307        C809   1.281       .  A
O308       Cu313   2.014       .  S
O308        C810   1.279       .  A
O309       Cu314   1.994       .  S
O309        C318   1.276   1_455  A
O310       Cu314   2.004       .  S
O310        C317   1.277       .  A
O311       Cu314   2.017       .  S
O311        C316   1.279   1_455  A
O312       Cu314   2.002       .  S
O312        C315   1.278   1_455  A
Cu313      Cu806   2.371       .  S
Cu314      Cu805   2.371   1_455  S
C315        O797   1.275       .  A
C315        C357   1.480       .  S
C316        O798   1.274       .  A
C316        C467   1.465       .  S
C317        O799   1.281   1_455  A
C317        C454   1.482       .  S
C318        O800   1.279       .  A
C318        C364   1.482       .  S
O319       Cu819   1.993       .  S
O319        C329   1.276       .  A
O320       Cu327   1.995   1_455  S
O320        C330   1.276       .  A
O321       Cu327   2.003   1_455  S
O321        C331   1.278       .  A
O322       Cu819   2.004       .  S
O322        C332   1.278       .  A
O323       Cu820   1.993       .  S
O324       Cu328   1.996       .  S
O325       Cu328   2.007       .  S
O326       Cu820   2.008       .  S
Cu327       O811   1.993       .  S
Cu327       O814   2.004       .  S
Cu328       O815   1.993   1_455  S
Cu328       O818   2.008   1_455  S
C329        C394   1.485       .  S
C330        C434   1.478       .  S
C331        C407   1.484       .  S
C332        C444   1.478       .  S
C333        C826   1.400       .  A
C333        C338   1.401       .  A
C333        F340   1.358       .  S
C334        C825   1.400       .  A
C334        C335   1.396       .  A
C335        C336   1.401       .  A
C335        F342   1.358   1_455  S
C336        C337   1.426       .  A
C336        F341   1.357   1_455  S
C337        C830   1.422       .  A
C338        C829   1.422       .  A
C338        F339   1.355       .  S
C343        C344   1.398   1_455  A
C343        C348   1.400       .  A
C343        F350   1.358       .  S
C344        C837   1.404       .  A
C345        C836   1.404       .  A
C345        C346   1.401       .  A
C345        F352   1.358       .  S
C346        C839   1.420       .  A
C346        F351   1.356       .  S
C347        C838   1.420   1_455  A
C347        C348   1.430       .  A
C348        F349   1.356       .  S
C353        C846   1.408       .  A
C353        C358   1.396       .  A
C353        F360   1.358       .  S
C354        C845   1.408   1_455  A
C354        C355   1.410       .  A
C355        C356   1.395       .  A
C355        F362   1.358       .  S
C356        C357   1.407   1_455  A
C356        F361   1.358       .  S
C357        C850   1.411       .  A
C358        C849   1.411       .  A
C358        F359   1.358       .  S
C363        C364   1.410   1_455  A
C363        C368   1.398       .  A
C363        F370   1.358       .  S
C364        C857   1.406       .  A
C365        C856   1.406       .  A
C365        C366   1.398       .  A
C365        F372   1.358       .  S
C366        C859   1.410       .  A
C366        F371   1.358       .  S
C367        C858   1.410       .  A
C367        C368   1.407   1_655  A
C368        F369   1.358       .  S
C373        C866   1.408       .  A
C373        C378   1.395       .  A
C373        F380   1.358       .  S
C374        C865   1.408   1_455  A
C374        C375   1.411       .  A
C375        C376   1.398       .  A
C375        F382   1.358       .  S
C376        C377   1.408       .  A
C376        F381   1.358       .  S
C377        C870   1.410   1_455  A
C378        C869   1.410       .  A
C378        F379   1.358       .  S
C383        C876   1.409       .  A
C383        C388   1.399       .  A
C383        F390   1.358       .  S
C384        C875   1.409   1_455  A
C384        C385   1.409       .  A
C385        C386   1.397       .  A
C385        F392   1.358       .  S
C386        C387   1.409   1_455  A
C386        F391   1.358       .  S
C387        C880   1.410       .  A
C388        C879   1.410       .  A
C388        F389   1.358       .  S
C393        C398   1.397       .  A
C393        F400   1.358       .  S
C394        C395   1.410       .  A
C395        C396   1.397       .  A
C395        F402   1.358       .  S
C396        C397   1.409       .  A
C396        F401   1.358       .  S
C398        F399   1.358       .  S
C403        F410   1.358       .  S
C404        C405   1.410       .  A
C405        C406   1.395       .  A
C405        F412   1.358       .  S
C406        C407   1.408       .  A
C406        F411   1.358       .  S
C407        C408   1.411       .  A
C413        C418   1.401       .  A
C413        F420   1.356       .  S
C414        C796   1.571       .  S
C414        C415   1.429   1_545  A
C415        C416   1.399       .  A
C415        F422   1.356       .  S
C416        C417   1.398   1_565  A
C416        F421   1.358       .  S
C418        F419   1.358       .  S
C423        C424   1.401       .  A
C423        C428   1.401       .  A
C423        F430   1.359       .  S
C425        C426   1.399       .  A
C425        F432   1.358       .  S
C426        F431   1.356       .  S
C427        C428   1.423       .  A
C428        F429   1.355       .  S
C433        C434   1.407       .  A
C433        C438   1.397       .  A
C433        F440   1.358       .  S
C435        C436   1.396       .  A
C435        F442   1.358       .  S
C436        F441   1.358       .  S
C437        C438   1.409       .  A
C438        F439   1.358       .  S
C443        C444   1.406       .  A
C443        C448   1.395       .  A
C443        F450   1.358       .  S
C445        C446   1.397       .  A
C445        F452   1.358       .  S
C446        F451   1.358       .  S
C447        C448   1.409       .  A
C448        F449   1.358       .  S
C453        C946   1.398       .  A
C453        C458   1.401       .  A
C453        F460   1.358       .  S
C454        C945   1.398   1_455  A
C454        C455   1.404       .  A
C455        C456   1.400       .  A
C455        F462   1.358       .  S
C456        C457   1.420   1_455  A
C456        F461   1.356       .  S
C457        C950   1.430       .  A
C458        C949   1.430       .  A
C458        F459   1.356       .  S
C463        C956   1.421       .  A
C463        C468   1.398       .  A
C463        F470   1.355       .  S
C464        C955   1.421       .  A
C464        C465   1.427       .  A
C465        C466   1.397   1_655  A
C465        F472   1.356   1_655  S
C466        C467   1.393   1_455  A
C466        F471   1.358       .  S
C467        C960   1.400       .  A
C468        C959   1.400       .  A
C468        F469   1.359       .  S
C473        C478   1.398       .  A
C473        F480   1.358       .  S
C474        C475   1.404       .  A
C475        C476   1.400       .  A
C475        F482   1.358       .  S
C476        C477   1.419       .  A
C476        F481   1.356       .  S
C478        F479   1.356       .  S
C483        C488   1.399       .  A
C483        F490   1.357   1_565  S
C484        C493   1.566       .  S
C484        C485   1.423       .  A
C485        C486   1.401       .  A
C485        F492   1.355       .  S
C486        C487   1.401       .  A
C486        F491   1.358       .  S
C488        F489   1.358   1_565  S
C493        C949   1.572       .  S
C493        C710   1.563       .  S
C493        C969   1.570       .  S
O494       Cu502   2.001       .  S
O494        C504   1.276       .  A
O495       Cu502   1.990       .  S
O495        C505   1.276   1_545  A
O496       Cu502   2.003       .  S
O496        C506   1.278       .  A
O497       Cu502   2.019       .  S
O497        C507   1.279   1_545  A
O498       Cu503   2.008       .  S
O498        C753   1.276       .  A
O499       Cu503   1.998       .  S
O499        C752   1.277       .  A
O500       Cu503   2.007       .  S
O500        C751   1.278       .  A
O501       Cu503   2.019       .  S
O501        C750   1.280       .  A
Cu502      Cu749   2.372   1_545  S
Cu503      Cu748   2.372       .  S
C504        O747   1.280   1_545  A
C504        C720   1.478       .  S
C505        O746   1.278       .  A
C505        C693   1.476       .  S
C506        O745   1.277   1_545  A
C506        C683   1.479       .  S
C507        O744   1.276       .  A
C507        C733   1.471       .  S
O508       Cu516   2.004       .  S
O508        C764   1.276       .  A
O509       Cu516   1.991       .  S
O509        C519   1.276   1_545  A
O510       Cu516   2.006       .  S
O510        C520   1.278   1_545  A
O511       Cu516   2.020       .  S
O511        C767   1.279   1_545  A
O512       Cu517   2.005       .  S
O512        C521   1.276       .  A
O513       Cu517   1.996       .  S
O513        C766   1.276       .  A
O514       Cu517   2.008       .  S
O514        C765   1.278       .  A
O515       Cu517   2.020       .  S
O515        C518   1.280       .  A
Cu516      Cu763   2.369   1_545  S
Cu517      Cu762   2.370       .  S
C518        O754   1.276       .  A
C518        C663   1.481       .  S
C519        O760   1.279       .  A
C519        C650   1.484       .  S
C520        O759   1.276       .  A
C520        C643   1.485       .  S
C521        O757   1.279       .  A
C521        C670   1.471       .  S
O522       Cu776   2.003   1_554  S
O523       Cu530   2.001       .  S
O524       Cu530   2.003   1_554  S
O525       Cu776   2.001       .  S
O526       Cu777   1.993       .  S
O526        C535   1.276       .  A
O527       Cu531   1.995   1_554  S
O527        C534   1.276       .  A
O528       Cu531   2.009       .  S
O528        C533   1.278       .  A
O529       Cu777   2.009   1_554  S
O529        C532   1.279       .  A
Cu530       O768   2.003   1_556  S
Cu530       O771   2.001       .  S
Cu531       O772   1.993       .  S
Cu531       O775   2.008   1_556  S
C532        C630   1.485       .  S
C533        C613   1.483       .  S
C534        C620   1.484       .  S
C535        C600   1.482       .  S
O536       Cu544   2.001       .  S
O536        C546   1.277       .  A
O537       Cu544   2.009       .  S
O537        C547   1.276       .  A
O538       Cu544   2.022       .  S
O538        C548   1.280       .  A
O539       Cu544   2.008       .  S
O539        C549   1.278       .  A
O540       Cu545   1.993       .  S
O541       Cu545   2.006       .  S
O542       Cu545   2.024       .  S
O543       Cu545   2.010       .  S
C546        C633   1.486       .  S
C547        C580   1.473       .  S
C548        C590   1.481       .  S
C549        C623   1.484       .  S
C550        C583   1.567       .  S
C550        C839   1.571       .  S
C550        C673   1.566       .  S
O551       Cu559   1.989       .  S
O552       Cu559   1.995       .  S
O553       Cu559   2.026       .  S
O554       Cu559   2.014       .  S
O555       Cu560   1.994       .  S
O555        C564   1.276       .  A
O556       Cu560   2.004       .  S
O556        C563   1.276       .  A
O557       Cu560   2.017       .  S
O557        C562   1.279       .  A
O558       Cu560   2.001       .  S
O558        C561   1.278       .  A
C561        C603   1.481       .  S
C562        C713   1.465       .  S
C563        C700   1.482       .  S
C564        C610   1.481       .  S
O565        C575   1.276   1_545  A
O566       Cu573   1.994       .  S
O566        C576   1.276   1_545  A
O567       Cu573   2.003       .  S
O567        C577   1.278   1_545  A
O568        C578   1.278   1_545  A
O569        C824   1.276       .  A
O570       Cu574   1.996       .  S
O570        C823   1.276       .  A
O571       Cu574   2.007       .  S
O571        C822   1.279       .  A
O572        C821   1.279       .  A
Cu573      Cu820   2.368   1_545  S
Cu574      Cu819   2.368       .  S
C575        O818   1.279       .  A
C575        C640   1.485       .  S
C576        O817   1.279       .  A
C576        C680   1.478       .  S
C577        O816   1.276       .  A
C577        C653   1.484       .  S
C578        O815   1.276       .  A
C578        C690   1.478       .  S
C579        C584   1.401       .  A
C579        F586   1.358       .  S
C580        C581   1.396       .  A
C581        C582   1.401       .  A
C581        F588   1.358       .  S
C582        C583   1.426       .  A
C582        F587   1.357       .  S
C584        F585   1.355       .  S
C589        C590   1.398       .  A
C589        C594   1.400       .  A
C589        F596   1.358       .  S
C591        C592   1.401       .  A
C591        F598   1.358       .  S
C592        F597   1.356       .  S
C593        C796   1.572       .  S
C593        C594   1.430       .  A
C594        F595   1.356       .  S
C599        C604   1.396       .  A
C599        F606   1.358       .  S
C600        C601   1.410       .  A
C601        C602   1.395       .  A
C601        F608   1.358       .  S
C602        C603   1.407       .  A
C602        F607   1.358       .  S
C604        F605   1.358       .  S
C609        C610   1.410       .  A
C609        C614   1.397       .  A
C609        F616   1.358       .  S
C611        C612   1.398       .  A
C611        F618   1.358       .  S
C612        F617   1.358       .  S
C613        C614   1.407       .  A
C614        F615   1.358       .  S
C619        C624   1.395       .  A
C619        F626   1.358       .  S
C620        C621   1.411       .  A
C621        C622   1.398       .  A
C621        F628   1.358       .  S
C622        C623   1.408       .  A
C622        F627   1.358       .  S
C624        F625   1.358       .  S
C629        C634   1.399       .  A
C629        F636   1.358       .  S
C630        C631   1.409       .  A
C631        C632   1.398       .  A
C631        F638   1.358       .  S
C632        C633   1.409       .  A
C632        F637   1.358       .  S
C634        F635   1.358       .  S
C639        C886   1.408       .  A
C639        C644   1.397       .  A
C639        F646   1.358       .  S
C640        C885   1.408       .  A
C640        C641   1.410   1_565  A
C641        C642   1.397       .  A
C641        F648   1.358       .  S
C642        C643   1.409   1_545  A
C642        F647   1.358       .  S
C643        C890   1.411       .  A
C644        C889   1.410       .  A
C644        F645   1.358       .  S
C649        C896   1.409       .  A
C649        C900   1.398       .  A
C649        F656   1.358       .  S
C650        C895   1.409       .  A
C650        C651   1.410   1_565  A
C651        C652   1.395       .  A
C651        F658   1.358       .  S
C652        C653   1.408   1_545  A
C652        F657   1.358       .  S
C653        C654   1.411       .  A
C654        C895   1.398       .  A
C654        F901   1.358       .  S
F655        C900   1.358       .  S
C659        C906   1.420       .  A
C659        C664   1.401       .  A
C659        F666   1.356       .  S
C660        C905   1.420       .  A
C660        C661   1.429       .  A
C661        C662   1.399       .  A
C661        F668   1.356       .  S
C662        C663   1.398       .  A
C662        F667   1.358       .  S
C663        C910   1.404       .  A
C664        C909   1.404       .  A
C664        F665   1.358       .  S
C669        C670   1.401       .  A
C669        C674   1.401       .  A
C669        F676   1.359       .  S
C670        C917   1.394       .  A
C671        C916   1.394   1_545  A
C671        C672   1.399       .  A
C671        F678   1.358       .  S
C672        C919   1.426   1_545  A
C672        F677   1.356       .  S
C673        C918   1.426       .  A
C673        C674   1.423       .  A
C674        F675   1.355       .  S
C679        C680   1.407   1_545  A
C679        C684   1.397       .  A
C679        F686   1.358       .  S
C680        C927   1.408       .  A
C681        C926   1.408       .  A
C681        C682   1.396       .  A
C681        F688   1.358       .  S
C682        C929   1.407       .  A
C682        F687   1.358       .  S
C683        C928   1.407   1_545  A
C683        C684   1.409       .  A
C684        F685   1.358       .  S
C689        C690   1.406   1_545  A
C689        C694   1.395       .  A
C689        F696   1.358       .  S
C690        C937   1.410       .  A
C691        C936   1.410       .  A
C691        C692   1.397       .  A
C691        F698   1.358       .  S
C692        C939   1.405       .  A
C692        F697   1.358       .  S
C693        C938   1.405       .  A
C693        C694   1.409   1_565  A
C694        F695   1.358       .  S
C699        C704   1.401       .  A
C699        F706   1.358       .  S
C700        C701   1.404       .  A
C701        C702   1.400       .  A
C701        F708   1.358       .  S
C702        C703   1.420       .  A
C702        F707   1.356       .  S
C703        C739   1.572       .  S
C704        F705   1.356       .  S
C709        C714   1.398       .  A
C709        F716   1.355       .  S
C710        C711   1.427       .  A
C711        C712   1.397       .  A
C711        F718   1.356       .  S
C712        C713   1.393       .  A
C712        F717   1.358       .  S
C714        F715   1.359       .  S
C719        C966   1.396       .  A
C719        C724   1.398       .  A
C719        F726   1.358       .  S
C720        C965   1.396   1_545  A
C720        C721   1.404       .  A
C721        C722   1.400       .  A
C721        F728   1.358       .  S
C722        C723   1.419       .  A
C722        F727   1.356       .  S
C723        C739   1.570       .  S
C723        C970   1.431   1_545  A
C724        C969   1.431       .  A
C724        F725   1.356       .  S
C729        C976   1.426       .  A
C729        C734   1.399       .  A
C729        F736   1.357       .  S
C730        C975   1.426       .  A
C730        C731   1.423       .  A
C731        C732   1.401       .  A
C731        F738   1.355       .  S
C732        C733   1.401       .  A
C732        F737   1.358       .  S
C733        C980   1.394       .  A
C734        C979   1.394       .  A
C734        F735   1.358       .  S
C739        C956   1.563   1_545  S
O740       Cu748   2.000       .  S
O740        C750   1.276       .  A
O741       Cu748   1.989       .  S
O741        C751   1.276       .  A
O742       Cu748   2.003       .  S
O742        C752   1.278       .  A
O743       Cu748   2.019       .  S
O743        C753   1.279       .  A
O744       Cu749   2.008       .  S
O745       Cu749   1.998       .  S
O746       Cu749   2.007       .  S
O747       Cu749   2.018       .  S
C750        C966   1.478       .  S
C751        C939   1.476       .  S
C752        C929   1.479       .  S
C753        C979   1.471       .  S
O754       Cu762   2.004       .  S
O755       Cu762   1.991       .  S
O755        C765   1.276       .  A
O756       Cu762   2.007       .  S
O756        C766   1.278       .  A
O757       Cu762   2.020       .  S
O758       Cu763   2.004       .  S
O758        C767   1.276       .  A
O759       Cu763   1.996       .  S
O760       Cu763   2.009       .  S
O761       Cu763   2.021       .  S
O761        C764   1.280   1_565  A
C764        C909   1.481       .  S
C765        C896   1.484       .  S
C766        C889   1.485       .  S
C767        C916   1.470       .  S
O769       Cu776   2.001   1_565  S
O770       Cu776   2.002   1_564  S
O772        C781   1.276       .  A
O773       Cu777   1.994   1_564  S
O773        C780   1.276       .  A
O774       Cu777   2.009   1_565  S
O774        C779   1.278       .  A
O775        C778   1.278       .  A
C778        C876   1.484       .  S
C779        C859   1.483       .  S
C780        C866   1.484       .  S
C781        C846   1.481       .  S
O782       Cu790   2.000       .  S
O782        C792   1.277       .  A
O783       Cu790   2.009       .  S
O783        C793   1.276       .  A
O784       Cu790   2.021       .  S
O784        C794   1.280       .  A
O785       Cu790   2.008       .  S
O785        C795   1.278       .  A
O786       Cu791   1.992       .  S
O787       Cu791   2.005       .  S
O788       Cu791   2.023       .  S
O789       Cu791   2.010       .  S
C792        C879   1.485       .  S
C793        C826   1.473       .  S
C794        C836   1.481       .  S
C795        C869   1.484       .  S
C796        C829   1.567   1_545  S
C796        C919   1.566   1_545  S
O797       Cu805   1.989       .  S
O798       Cu805   1.994       .  S
O799       Cu805   2.026       .  S
O800       Cu805   2.014       .  S
O801       Cu806   1.994       .  S
O801        C810   1.276       .  A
O802       Cu806   2.004       .  S
O802        C809   1.277       .  A
O803       Cu806   2.017       .  S
O803        C808   1.279       .  A
O804       Cu806   2.002       .  S
O804        C807   1.278       .  A
C807        C849   1.480       .  S
C808        C959   1.465       .  S
C809        C946   1.482       .  S
C810        C856   1.482       .  S
O811        C821   1.276       .  A
O812       Cu819   1.995       .  S
O812        C822   1.276       .  A
O813       Cu819   2.003       .  S
O813        C823   1.278       .  A
O814        C824   1.278       .  A
O816       Cu820   1.996       .  S
O817       Cu820   2.007       .  S
C821        C886   1.485       .  S
C822        C926   1.478       .  S
C823        C899   1.484       .  S
C824        C936   1.478       .  S
C825        C830   1.401       .  A
C825        F832   1.358       .  S
C826        C827   1.396       .  A
C827        C828   1.401       .  A
C827        F834   1.358       .  S
C828        C829   1.426       .  A
C828        F833   1.357       .  S
C830        F831   1.355       .  S
C835        C836   1.398       .  A
C835        C840   1.400       .  A
C835        F842   1.358       .  S
C837        C838   1.401       .  A
C837        F844   1.358       .  S
C838        F843   1.356       .  S
C839        C840   1.430       .  A
C840        F841   1.356       .  S
C845        C850   1.396       .  A
C845        F852   1.358       .  S
C846        C847   1.410       .  A
C847        C848   1.395       .  A
C847        F854   1.358       .  S
C848        C849   1.407       .  A
C848        F853   1.358       .  S
C850        F851   1.358       .  S
C855        C856   1.410       .  A
C855        C860   1.398       .  A
C855        F862   1.358       .  S
C857        C858   1.398       .  A
C857        F864   1.358       .  S
C858        F863   1.358       .  S
C859        C860   1.407       .  A
C860        F861   1.358       .  S
C865        C870   1.395       .  A
C865        F872   1.358       .  S
C866        C867   1.411       .  A
C867        C868   1.398       .  A
C867        F874   1.358       .  S
C868        C869   1.408       .  A
C868        F873   1.358       .  S
C870        F871   1.358       .  S
C875        C880   1.399       .  A
C875        F882   1.358       .  S
C876        C877   1.409       .  A
C877        C878   1.397       .  A
C877        F884   1.358       .  S
C878        C879   1.409       .  A
C878        F883   1.358       .  S
C880        F881   1.358       .  S
C885        C890   1.397       .  A
C885        F892   1.358       .  S
C886        C887   1.410       .  A
C887        C888   1.397       .  A
C887        F894   1.358       .  S
C888        C889   1.409       .  A
C888        F893   1.358       .  S
C890        F891   1.358       .  S
C895        F902   1.358       .  S
C896        C897   1.410       .  A
C897        C898   1.395       .  A
C897        F904   1.358       .  S
C898        C899   1.408       .  A
C898        F903   1.358       .  S
C899        C900   1.411       .  A
C905        C910   1.401       .  A
C905        F912   1.356       .  S
C906        C907   1.429   1_545  A
C907        C908   1.399       .  A
C907        F914   1.356       .  S
C908        C909   1.398   1_565  A
C908        F913   1.358       .  S
C910        F911   1.358       .  S
C915        C916   1.401       .  A
C915        C920   1.401       .  A
C915        F922   1.359       .  S
C917        C918   1.399       .  A
C917        F924   1.358       .  S
C918        F923   1.356       .  S
C919        C920   1.423       .  A
C920        F921   1.355       .  S
C925        C926   1.407       .  A
C925        C930   1.397       .  A
C925        F932   1.358       .  S
C927        C928   1.396       .  A
C927        F934   1.358       .  S
C928        F933   1.358       .  S
C929        C930   1.409       .  A
C930        F931   1.358       .  S
C935        C936   1.406       .  A
C935        C940   1.395       .  A
C935        F942   1.358       .  S
C937        C938   1.397       .  A
C937        F944   1.358       .  S
C938        F943   1.358       .  S
C939        C940   1.409       .  A
C940        F941   1.358       .  S
C945        C950   1.401       .  A
C945        F952   1.358       .  S
C946        C947   1.404       .  A
C947        C948   1.400       .  A
C947        F954   1.358       .  S
C948        C949   1.420       .  A
C948        F953   1.356       .  S
C950        F951   1.356       .  S
C955        C960   1.398       .  A
C955        F962   1.355       .  S
C956        C957   1.427       .  A
C957        C958   1.397       .  A
C957        F964   1.356       .  S
C958        C959   1.393       .  A
C958        F963   1.358       .  S
C960        F961   1.359       .  S
C965        C970   1.398       .  A
C965        F972   1.358       .  S
C966        C967   1.404       .  A
C967        C968   1.400       .  A
C967        F974   1.358       .  S
C968        C969   1.419       .  A
C968        F973   1.356       .  S
C970        F971   1.356       .  S
C975        C980   1.399       .  A
C975        F982   1.357   1_565  S
C976        C977   1.423       .  A
C977        C978   1.401       .  A
C977        F984   1.355       .  S
C978        C979   1.401       .  A
C978        F983   1.358       .  S
C980        F981   1.358   1_565  S
