geometry optimzed in LAMMPS
_audit_creation_date              2020-11-30 
_audit_creation_method            'lammps2cif' 
_symmetry_space_group_name_H-M    'P1' 
_symmetry_Int_Tables_number       1 
_symmetry_cell_setting            triclinic 
loop_ 
_symmetry_equiv_pos_as_xyz 
  x,y,z 
_cell_length_a                    44.5155436 
_cell_length_b                    44.5895137362254 
_cell_length_c                    33.77238941130228 
_cell_angle_alpha                 91.47668672086722 
_cell_angle_beta                  88.44950735472813 
_cell_angle_gamma                 115.4716296030981 
loop_ 
_atom_site_label 
_atom_site_type_symbol 
_atom_site_fract_x 
_atom_site_fract_y 
_atom_site_fract_z 
_atom_site_charge 
O1          O  0.36129183  0.11863488  0.02978920    -0.80900
O2          O  0.36193895  0.23445727  0.95794163    -0.65600
O3          O  0.34252594  0.16842320  0.03438204    -1.12200
C4          C  0.25161036  0.10712368  0.95531055     1.06000
O5          O  0.31000925  0.22938766  0.96263738    -0.78800
O6          O  0.26799518  0.18130121  0.01338495    -0.66400
Ni7        Ni  0.37812229  0.16137972  0.05418442     1.34900
C8          C  0.26059133  0.15755558  0.03735532     0.84700
O9          O  0.39134778  0.23377894  0.02653974    -0.79400
O10         O  0.39593665  0.20466514  0.07753230    -0.89600
C11         C  0.34040711  0.24514839  0.95154580     0.84300
O12         O  0.40977669  0.17727753  0.01172812    -0.67800
O13         O  0.25119095  0.13555617  0.95303966    -0.87100
C14         C  0.40430350  0.17879132  0.97551147     0.85100
C15         C  0.40290944  0.23213110  0.06044651     1.06700
H16         H  0.32412102  0.16488426  0.94339506     0.38500
O17         O  0.31686798  0.16993936  0.96893195    -1.09800
O18         O  0.27416413  0.13751399  0.03571984    -0.66400
Ni19       Ni  0.30931869  0.13412504  0.00336487     1.26300
O20         O  0.38138777  0.18646073  0.96494337    -0.66700
O21         O  0.27533786  0.10247693  0.97041674    -0.79000
C22         C  0.33424103  0.09646571  0.04278902     0.84500
O23         O  0.30716574  0.09908411  0.03772278    -0.66100
Ni24       Ni  0.28182339  0.18177615  0.95933919     1.27400
Ni25       Ni  0.35391511  0.20200073  0.99667829     1.26100
H26         H  0.33187517  0.17417548  0.05666477     0.39000
O27         O  0.27626944  0.19457479  0.45998378    -0.80900
O28         O  0.40363778  0.19272455  0.53789686    -0.65600
O29         O  0.33455464  0.18549591  0.46737752    -1.12200
C30         C  0.26893008  0.09927094  0.55682311     1.06000
O31         O  0.38280864  0.13887717  0.52804814    -0.78800
O32         O  0.32469419  0.09142227  0.50878742    -0.66400
Ni33       Ni  0.32413082  0.22142191  0.45764377     1.34900
C34         C  0.32186433  0.09662589  0.47280366     0.84700
O35         O  0.40256593  0.22552043  0.47030079    -0.79400
O36         O  0.37081140  0.25061915  0.45110735    -0.89600
C37         C  0.40569379  0.16526266  0.54128020     0.84300
O38         O  0.32409112  0.23519238  0.51199811    -0.67800
O39         O  0.29600889  0.10459027  0.57399223    -0.87100
C40         C  0.34700629  0.24120542  0.53683729     0.85100
C41         C  0.39871657  0.24894058  0.45320301     1.06700
H42         H  0.32838821  0.16935922  0.55507671     0.38500
O43         O  0.33405853  0.15881135  0.53269777    -1.09800
O44         O  0.31515083  0.12027398  0.46269573    -0.66400
Ni45       Ni  0.30110895  0.14891706  0.49439407     1.26300
O46         O  0.36663759  0.22713879  0.53493893    -0.66700
O47         O  0.26798638  0.11210436  0.52357991    -0.79000
C48         C  0.25997231  0.16466708  0.44766004     0.84500
O49         O  0.26936407  0.14233517  0.45509326    -0.66100
Ni50       Ni  0.33983107  0.12234902  0.55181804     1.27400
Ni51       Ni  0.36957934  0.19186068  0.50267799     1.26100
H52         H  0.33975907  0.17814193  0.44196234     0.39000
O53         O  0.43339984  0.03877298  0.70662937    -0.74500
O54         O  0.39029103  0.46967039  0.78705361    -0.74500
O55         O  0.42580778  0.04328041  0.78542749    -0.74500
O56         O  0.39769637  0.46871623  0.70832231    -0.74600
O57         O  0.44334961  0.46539459  0.72375595    -0.74500
O58         O  0.47046792  0.03606818  0.79705432    -0.74500
O59         O  0.43981466  0.47545775  0.80288669    -0.74500
O60         O  0.47859469  0.03199191  0.71683502    -0.74500
Ni61       Ni  0.40946159  0.00537546  0.74686416     1.25400
Ni62       Ni  0.45943141  0.00202095  0.75959061     1.25400
C63         C  0.46465787  0.04741708  0.69944320     0.87700
C64         C  0.40929074  0.45819543  0.80307371     0.87700
C65         C  0.45558353  0.05430827  0.79932755     0.87700
C66         C  0.41645854  0.45342174  0.70478705     0.87900
O67         O  0.10852298  0.06752938  0.71432126    -0.74500
O68         O  0.06622546  0.10827579  0.78897285    -0.74500
O69         O  0.10277286  0.07007641  0.79466764    -0.74500
O70         O  0.07045239  0.10417871  0.70884653    -0.74600
O71         O  0.03538776  0.05197136  0.69838606    -0.74500
O72         O  0.05028153  0.03488729  0.80345108    -0.74500
O73         O  0.02018283  0.06794400  0.76904977    -0.74500
O74         O  0.06787148  0.02113044  0.73272059    -0.74500
Ni75       Ni  0.08987084  0.09035579  0.75176650     1.25400
Ni76       Ni  0.04162465  0.04215895  0.75087220     1.25400
C77         C  0.09419793  0.03540264  0.71285922     0.87700
C78         C  0.03403308  0.09400704  0.78933039     0.87700
C79         C  0.08058416  0.04373015  0.81101590     0.87700
C80         C  0.04425879  0.08241463  0.69184133     0.87900
O81         O  0.03874119  0.43376890  0.79423282    -0.74500
O82         O  0.47004237  0.39167718  0.71314292    -0.74500
O83         O  0.04404946  0.42767320  0.71499998    -0.74500
O84         O  0.46838764  0.39829461  0.79199537    -0.74600
O85         O  0.46529399  0.44424690  0.77766820    -0.74500
O86         O  0.03636696  0.47210299  0.70407392    -0.74500
O87         O  0.47551427  0.44122082  0.69838563    -0.74500
O88         O  0.03201630  0.47895721  0.78450678    -0.74500
Ni89       Ni  0.00562408  0.41052161  0.75327642     1.25400
Ni90       Ni  0.00218422  0.46048910  0.74147607     1.25400
C91         C  0.04724295  0.46485332  0.80199702     0.87700
C92         C  0.45847233  0.41068140  0.69734306     0.87700
C93         C  0.05484337  0.45752142  0.70135902     0.87700
C94         C  0.45301806  0.41700418  0.79585363     0.87900
C95         C  0.48478097  0.12046572  0.63042563     0.02300
C96         C  0.01969134  0.13632851  0.62911408     0.02200
C97         C  0.03761183  0.12205721  0.64822608    -0.18300
C98         C  0.02170357  0.09247524  0.66949137     0.02300
C99         C  0.48541326  0.07641660  0.67245733     0.02200
C100        C  0.46805044  0.09092046  0.65159562    -0.18300
H101        H  0.44108169  0.07959559  0.65237220     0.04300
H102        H  0.06458511  0.13457987  0.64687175     0.04300
C103        C  0.13268840  0.47917697  0.63713357     0.02300
C104        C  0.14892989  0.01361806  0.64090889     0.02200
C105        C  0.13619535  0.03034999  0.66692044    -0.18300
C106        C  0.10634203  0.01371876  0.68804475     0.02300
C107        C  0.08901003  0.47780761  0.68385870     0.02200
C108        C  0.10326640  0.46140869  0.65907450    -0.18300
H109        H  0.09024221  0.43471714  0.65479833     0.04300
H110        H  0.14959519  0.05713077  0.66987611     0.04300
C111        C  0.37735727  0.36426610  0.86127581     0.02300
C112        C  0.35563590  0.37995253  0.85840367     0.02200
C113        C  0.36668752  0.40942679  0.83675542    -0.18300
C114        C  0.39851311  0.42428351  0.81945384     0.02300
C115        C  0.42001888  0.40702867  0.81953935     0.02200
C116        C  0.40854774  0.37763158  0.84131548    -0.18300
H117        H  0.42451645  0.36503676  0.84347682     0.04300
H118        H  0.35063050  0.42194025  0.83462748     0.04300
C119        C  0.38246005  0.35892622  0.63728637     0.02300
C120        C  0.36534946  0.37936939  0.63644540     0.02200
C121        C  0.37767853  0.40966931  0.65813792    -0.18300
C122        C  0.40701660  0.42099295  0.68029155     0.02300
C123        C  0.42478437  0.39990827  0.67989242     0.02200
C124        C  0.41094373  0.36892978  0.66047717    -0.18300
H125        H  0.42356228  0.35292051  0.66179708     0.04300
H126        H  0.36422715  0.42492209  0.65721484     0.04300
C127        C  0.13269867  0.01979799  0.87723232     0.02300
C128        C  0.11931611  0.48542994  0.87377636     0.02200
C129        C  0.09071172  0.46834526  0.85077147    -0.18300
C130        C  0.07562068  0.48536978  0.83001063     0.02300
C131        C  0.09010946  0.02121717  0.83421890     0.02200
C132        C  0.11817749  0.03731392  0.85786155    -0.18300
H133        H  0.12961995  0.06422109  0.86046877     0.04300
H134        H  0.08062592  0.44151695  0.84851396     0.04300
C135        C  0.47518449  0.13358907  0.85942497     0.02300
C136        C  0.01027448  0.14978263  0.85683832     0.02200
C137        C  0.02778160  0.13654240  0.83285783    -0.18300
C138        C  0.01173744  0.10620951  0.81276549     0.02300
C139        C  0.47536851  0.08865957  0.81628350     0.02200
C140        C  0.45810347  0.10355066  0.83854566    -0.18300
H141        H  0.43127777  0.09056533  0.84190227     0.04300
H142        H  0.05466475  0.14990596  0.83083217     0.04300
O143        O  0.11869590  0.36114760  0.47301684    -0.80900
O144        O  0.23354042  0.36321178  0.54250859    -0.65600
O145        O  0.16765795  0.34331593  0.46559373    -1.12200
C146        C  0.10557014  0.25505186  0.54957270     1.06000
O147        O  0.22780934  0.31124831  0.53777765    -0.78800
O148        O  0.17770920  0.26593622  0.49203729    -0.66400
Ni149      Ni  0.16022882  0.37868502  0.44644046     1.34900
C150        C  0.15577492  0.26014564  0.46588083     0.84700
O151        O  0.23244617  0.39209985  0.47336528    -0.79400
O152        O  0.20324491  0.39710076  0.42244168    -0.89600
C153        C  0.24397567  0.34147619  0.54900093     0.84300
O154        O  0.17598530  0.41090012  0.48814035    -0.67800
O155        O  0.13400283  0.25507464  0.55439976    -0.87100
C156        C  0.17759018  0.40545151  0.52434816     0.85100
C157        C  0.23066124  0.40389186  0.43965642     1.06700
H158        H  0.16304477  0.32612891  0.55646216     0.38500
O159        O  0.16851891  0.31836343  0.53153990    -1.09800
O160        O  0.13690902  0.27503099  0.46522692    -0.66400
Ni161      Ni  0.13288710  0.31017625  0.49648551     1.26300
O162        O  0.18544442  0.38267966  0.53476025    -0.66700
O163        O  0.10080174  0.27660265  0.52956692    -0.79000
C164        C  0.09567000  0.33539197  0.45917572     0.84500
O165        O  0.09784409  0.30789115  0.46155365    -0.66100
Ni166      Ni  0.18022117  0.28402470  0.54441922     1.27400
Ni167      Ni  0.20093966  0.35498135  0.50355391     1.26100
H168        H  0.17358379  0.33284109  0.44338136     0.39000
O169        O  0.18755060  0.26937034  0.02855703    -0.80900
O170        O  0.19186421  0.40296407  0.96515352    -0.65600
O171        O  0.18270291  0.32963571  0.02912106    -1.12200
C172        C  0.09331587  0.27098441  0.94028627     1.06000
O173        O  0.13781049  0.38411967  0.97398044    -0.78800
O174        O  0.08900643  0.32535713  0.99135855    -0.66400
Ni175      Ni  0.21748622  0.31629313  0.03312840     1.34900
C176        C  0.09495030  0.32246534  0.02708673     0.84700
O177        O  0.22591014  0.39663577  0.02952825    -0.79400
O178        O  0.24962259  0.36192637  0.04101261    -0.89600
C179        C  0.16507337  0.40639097  0.96151748     0.84300
O180        O  0.22864088  0.31815096  0.97750678    -0.67800
O181        O  0.10059986  0.29877236  0.92388232    -0.87100
C182        C  0.23571969  0.34328306  0.95581237     0.85100
C183        C  0.25005720  0.39087071  0.04163591     1.06700
H184        H  0.16506156  0.32799304  0.94295752     0.38500
O185        O  0.15517025  0.33356049  0.96615082    -1.09800
O186        O  0.11802233  0.31448789  0.03623701    -0.66400
Ni187      Ni  0.14421262  0.29892805  0.00226518     1.26300
O188        O  0.22275260  0.36343490  0.96177495    -0.66700
O189        O  0.10558641  0.26854990  0.97336873    -0.79000
C190        C  0.15875767  0.25510515  0.04495896     0.84500
O191        O  0.13677857  0.26552021  0.03972357    -0.66100
Ni192      Ni  0.11974698  0.34177023  0.94828940     1.27400
Ni193      Ni  0.18977595  0.36662728  0.99717460     1.26100
H194        H  0.17670304  0.33393908  0.05564670     0.39000
O195        O  0.46804238  0.02294902  0.21773501    -0.74500
O196        O  0.02574204  0.06047916  0.30258131    -0.74500
O197        O  0.46473408  0.03081029  0.29817037    -0.74500
O198        O  0.03493229  0.05682312  0.22291222    -0.74600
O199        O  0.03306705  0.10363771  0.20995050    -0.74500
O200        O  0.45687612  0.07485398  0.28549654    -0.74500
O201        O  0.03050754  0.11006093  0.28881017    -0.74500
O202        O  0.46263033  0.06861473  0.20672715    -0.74500
Ni203      Ni  0.49846601  0.04139117  0.26005266     1.25400
Ni204      Ni  0.49554361  0.09162519  0.24801695     1.25400
C205        C  0.45326073  0.03725839  0.19989023     0.87700
C206        C  0.04222097  0.09107958  0.30436794     0.87700
C207        C  0.44606822  0.04523667  0.29962702     0.87700
C208        C  0.04780712  0.08442067  0.20535609     0.87900
O209        O  0.43230328  0.39917938  0.29401102    -0.74500
O210        O  0.39801276  0.43137715  0.20792391    -0.74500
O211        O  0.43506967  0.39344262  0.21407675    -0.74500
O212        O  0.39323840  0.43482760  0.28803731    -0.74600
O213        O  0.43371563  0.48117078  0.26909180    -0.74500
O214        O  0.48129716  0.43461499  0.23194473    -0.74500
O215        O  0.45016646  0.46692400  0.19791929    -0.74500
O216        O  0.46750299  0.45158829  0.30278242    -0.74500
Ni217      Ni  0.41186505  0.41188532  0.25101764     1.25400
Ni218      Ni  0.45995611  0.46038934  0.25038192     1.25400
C219        C  0.45877095  0.42132515  0.31020246     0.87700
C220        C  0.41967594  0.45786361  0.19119989     0.87700
C221        C  0.46722404  0.40781430  0.21302593     0.87700
C222        C  0.40729047  0.46692954  0.28876326     0.87900
C223        C  0.34919556  0.48929450  0.35394124     0.02300
C224        C  0.36512422  0.02443443  0.35686442     0.02200
C225        C  0.39583336  0.04185447  0.33727822    -0.18300
C226        C  0.41146816  0.02507137  0.31561412     0.02300
C227        C  0.39426298  0.48867728  0.31176663     0.02200
C228        C  0.36331310  0.47228153  0.33048638    -0.18300
H229        H  0.35015811  0.44544781  0.32790258     0.04300
H230        H  0.40863991  0.06860568  0.34108463     0.04300
O231        O  0.02400683  0.47057007  0.28369471    -0.74500
O232        O  0.06061680  0.02580780  0.19712240    -0.74500
O233        O  0.03114793  0.46503907  0.20366450    -0.74500
O234        O  0.05827513  0.03710075  0.27607902    -0.74600
O235        O  0.10471174  0.03491576  0.29027251    -0.74500
O236        O  0.07577660  0.45793917  0.21544560    -0.74500
O237        O  0.11058122  0.03180569  0.21146001    -0.74500
O238        O  0.06963019  0.46461220  0.29396213    -0.74500
Ni239      Ni  0.04225929  0.49970904  0.24033602     1.25400
Ni240      Ni  0.09264059  0.49699096  0.25245364     1.25400
C241        C  0.03835467  0.45573946  0.30130764     0.87700
C242        C  0.09111277  0.04283762  0.19569727     0.87700
C243        C  0.04580270  0.44660447  0.20207497     0.87700
C244        C  0.08561498  0.04984033  0.29412745     0.87900
C245        C  0.36612442  0.48143902  0.12615369     0.02300
C246        C  0.37998307  0.01625872  0.12971214     0.02200
C247        C  0.40873499  0.03337461  0.15253138    -0.18300
C248        C  0.42425429  0.01651708  0.17282742     0.02300
C249        C  0.40941564  0.48035124  0.16866203     0.02200
C250        C  0.38109473  0.46417770  0.14543591    -0.18300
H251        H  0.37001653  0.43728781  0.14267672     0.04300
H252        H  0.41900750  0.06023311  0.15446323     0.04300
C253        C  0.13706815  0.12425419  0.36158278     0.02300
C254        C  0.11802076  0.14286813  0.36462234     0.02200
C255        C  0.08824290  0.13196142  0.34386247    -0.18300
C256        C  0.07579436  0.10210809  0.32185177     0.02300
C257        C  0.09503232  0.08241931  0.31846065     0.02200
C258        C  0.12568635  0.09505600  0.33796273    -0.18300
H259        H  0.14108237  0.08175715  0.33513346     0.04300
H260        H  0.07361148  0.14608968  0.34665968     0.04300
C261        C  0.14134818  0.11828818  0.13531400     0.02300
C262        C  0.12090572  0.13541447  0.13584568     0.02200
C263        C  0.09178073  0.12396910  0.15967986    -0.18300
C264        C  0.08038815  0.09415618  0.18072473     0.02300
C265        C  0.10128929  0.07611368  0.17834596     0.02200
C266        C  0.13151747  0.08931686  0.15714496    -0.18300
H267        H  0.14679252  0.07580263  0.15570060     0.04300
H268        H  0.07734543  0.13831753  0.16080900     0.04300
C269        C  0.01851447  0.38237078  0.36921698     0.02300
C270        C  0.48362581  0.36771701  0.37270915     0.02200
C271        C  0.46580957  0.38286778  0.35516259    -0.18300
C272        C  0.48162360  0.41174509  0.33277124     0.02300
C273        C  0.01785474  0.42702278  0.32852045     0.02200
C274        C  0.03522547  0.41187055  0.34806844    -0.18300
H275        H  0.06216097  0.42256901  0.34615040     0.04300
H276        H  0.43887432  0.37122018  0.35801782     0.04300
C277        C  0.02442526  0.36603073  0.14412520     0.02300
C278        C  0.48946908  0.34987051  0.14763726     0.02200
C279        C  0.47251607  0.36385895  0.17132065    -0.18300
C280        C  0.48911045  0.39468455  0.19039302     0.02300
C281        C  0.02549662  0.41183256  0.18640397     0.02200
C282        C  0.04214444  0.39626027  0.16433628    -0.18300
H283        H  0.06892351  0.40899509  0.16019217     0.04300
H284        H  0.44560877  0.35090952  0.17346210     0.04300
C285        C  0.16095543  0.19281445  0.11855180    -0.26400
C286        C  0.12992885  0.16592369  0.11228244    -0.14400
C287        C  0.10843579  0.16872400  0.08378750     0.36200
C288        C  0.11854288  0.19838925  0.06304585    -0.25800
C289        C  0.14992283  0.22495472  0.06862061    -0.15000
C290        C  0.17129607  0.22228582  0.09737542     0.37300
N291        N  0.20300168  0.24894878  0.10709126    -0.89300
H292        H  0.17725345  0.19108706  0.14075773     0.18400
H293        H  0.10197853  0.20028560  0.04130236     0.18400
N294        N  0.07678341  0.14196047  0.07409466    -0.88300
H295        H  0.20235666  0.25433654  0.13733380     0.35800
H296        H  0.20716484  0.27090305  0.09299737     0.40900
H297        H  0.07305932  0.11995677  0.08782904     0.40500
H298        H  0.07726431  0.13686305  0.04375119     0.35400
C299        C  0.05776547  0.34888768  0.04628371    -0.26400
C300        C  0.07524336  0.33082620  0.05799884    -0.14400
C301        C  0.07532122  0.32380532  0.09857673     0.36200
C302        C  0.05904351  0.33612659  0.12636888    -0.25800
C303        C  0.04216099  0.35452860  0.11427911    -0.15000
C304        C  0.04155232  0.36100600  0.07365741     0.37300
N305        N  0.02505010  0.37994755  0.05893544    -0.89300
H306        H  0.05741407  0.35474359  0.01540415     0.18400
H307        H  0.05912239  0.33103941  0.15755864     0.18400
N308        N  0.09164130  0.30418323  0.11143336    -0.88300
H309        H  0.04312427  0.40103141  0.04535311     0.35800
H310        H  0.01439112  0.38867951  0.08159922     0.40900
H311        H  0.07899255  0.28032478  0.09921906     0.40500
H312        H  0.08948319  0.30156300  0.14219497     0.35400
C313        C  0.27681002  0.43784847  0.08945389    -0.26400
C314        C  0.28039009  0.41826047  0.05806442    -0.14400
C315        C  0.31293807  0.42180344  0.04745252     0.36200
C316        C  0.34025109  0.44358885  0.06920105    -0.25800
C317        C  0.33643685  0.46185512  0.10164238    -0.15000
C318        C  0.30443649  0.45914447  0.11167542     0.31500
N319        N  0.29960623  0.47644675  0.14573914    -0.89300
H320        H  0.25218374  0.43499210  0.09846914     0.18400
H321        H  0.36484827  0.44576437  0.06115875     0.18400
N322        N  0.31958316  0.40393039  0.01495310    -0.88300
H323        H  0.28328234  0.45883356  0.16534325     0.35800
H324        H  0.28807545  0.49109627  0.13658749     0.40900
H325        H  0.29811845  0.38884332  0.99995256     0.40500
H326        H  0.32902017  0.38827428  0.02657077     0.35400
C327        C  0.13371716  0.20361017  0.37390473    -0.26400
C328        C  0.12771107  0.17300359  0.39086335    -0.14400
C329        C  0.13138683  0.17186733  0.43227396     0.36200
C330        C  0.14370377  0.20146703  0.45461772    -0.25800
C331        C  0.14933063  0.23198292  0.43789891    -0.15000
C332        C  0.14408923  0.23303774  0.39685591     0.37300
N333        N  0.14926334  0.26323360  0.37736714    -0.89300
H334        H  0.13048996  0.20468041  0.34236047     0.18400
H335        H  0.14643104  0.20013422  0.48625749     0.18400
N336        N  0.12152408  0.14117705  0.45298113    -0.88300
H337        H  0.16739812  0.26740580  0.35518431     0.35800
H338        H  0.15913059  0.28375005  0.39649128     0.40900
H339        H  0.10872419  0.12081966  0.43444350     0.40500
H340        H  0.10405378  0.14024132  0.47483655     0.35400
C341        C  0.06059802  0.32846854  0.40017679    -0.26400
C342        C  0.06946110  0.34060064  0.43900344    -0.14400
C343        C  0.06045985  0.36564213  0.45424498     0.36200
C344        C  0.04627742  0.38021435  0.42966040    -0.25800
C345        C  0.03784238  0.36863076  0.39101085    -0.15000
C346        C  0.04418812  0.34201677  0.37610026     0.37300
N347        N  0.53429696  0.32929827  0.33669722    -0.89300
H348        H  0.06790724  0.30980111  0.38807351     0.18400
H349        H  0.04033035  0.39991538  0.44145752     0.18400
N350        N  0.06501875  0.37660235  0.49490574    -0.88300
H351        H  0.54079376  0.30977125  0.33021139     0.35800
H352        H  0.54781825  0.34827974  0.31693589     0.40900
H353        H  0.09022345  0.39033027  0.50077026     0.40500
H354        H  0.05506893  0.35579097  0.51302660     0.35400
C355        C  0.32016670  0.44573984  0.40317668    -0.26400
C356        C  0.31872914  0.46891330  0.37689015    -0.14400
C357        C  0.28873158  0.47176811  0.37249067     0.36200
C358        C  0.26046426  0.45079718  0.39415470    -0.25800
C359        C  0.26160368  0.42680328  0.41959421    -0.15000
C360        C  0.29191551  0.42448427  0.42443854     0.37300
N361        N  0.29378816  0.40006729  0.45000925    -0.89300
H362        H  0.34349273  0.44398523  0.40664798     0.18400
H363        H  0.23732889  0.45294519  0.39081736     0.18400
N364        N  0.28687397  0.99554807  0.34535499    -0.88300
H365        H  0.31808901  0.40217530  0.45067271     0.35800
H366        H  0.27917144  0.37664447  0.43775045     0.40900
H367        H  0.29120239  0.98880154  0.31664265     0.40500
H368        H  0.26300561  0.99464024  0.34588318     0.35400
C369        C  0.02623972  0.20937273  0.87322190    -0.26400
C370        C  0.02987572  0.18030842  0.88006511    -0.14400
C371        C  0.05280689  0.18056420  0.90819881     0.36200
C372        C  0.07271863  0.21038126  0.92779907    -0.25800
C373        C  0.07018742  0.24001377  0.91999048    -0.15000
C374        C  0.04593806  0.23911681  0.89285382     0.37300
N375        N  0.04007204  0.26757548  0.88512568    -0.89300
H376        H  0.00827937  0.20903713  0.85196500     0.18400
H377        H  0.09079795  0.21053778  0.94874921     0.18400
N378        N  0.05598654  0.15056371  0.91639123    -0.88300
H379        H  0.06112683  0.28560577  0.87130361     0.35800
H380        H  0.03530611  0.27699002  0.91202971     0.40900
H381        H  0.03340120  0.13367070  0.92865969     0.40500
H382        H  0.07403050  0.15499842  0.93777405     0.35400
C383        C  0.16829652  0.43645356  0.89987711    -0.26400
C384        C  0.16310610  0.43413432  0.94105930    -0.14400
C385        C  0.14545863  0.45033503  0.95980281     0.36200
C386        C  0.13136165  0.46663027  0.93712343    -0.25800
C387        C  0.13450398  0.46711683  0.89568234    -0.15000
C388        C  0.15439918  0.45300600  0.87686665     0.37300
N389        N  0.16025884  0.95423861  0.83543065    -0.89300
H390        H  0.18120910  0.42337695  0.88517142     0.18400
H391        H  0.11718818  0.47836726  0.95190984     0.18400
N392        N  0.14035971  0.44866492  0.00192460    -0.88300
H393        H  0.18583318  0.96805740  0.83071486     0.35800
H394        H  0.14864066  0.96677351  0.82116455     0.40900
H395        H  0.11473267  0.43743052  0.00783942     0.40500
H396        H  0.14993359  0.47295008  0.01333328     0.35400
C397        C  0.27615233  0.35960353  0.61010866    -0.26400
C398        C  0.27560921  0.35154648  0.56969171    -0.14400
C399        C  0.30479614  0.35257363  0.55073445     0.36200
C400        C  0.33398980  0.36253927  0.57266532    -0.25800
C401        C  0.33430312  0.36976357  0.61347980    -0.15000
C402        C  0.30487636  0.36783897  0.63227123     0.37300
N403        N  0.30377562  0.37316557  0.67419076    -0.89300
H404        H  0.25375348  0.35843051  0.62489668     0.18400
H405        H  0.35654109  0.36435805  0.55773143     0.18400
N406        N  0.30600997  0.34428961  0.50946800    -0.88300
H407        H  0.29683053  0.39256918  0.67923962     0.35800
H408        H  0.28528923  0.35164880  0.68650180     0.40900
H409        H  0.28334199  0.33811199  0.49576287     0.40500
H410        H  0.31052629  0.32312961  0.50775398     0.35400
C411        C  0.26899479  0.32753006  0.90485651    -0.26400
C412        C  0.26307010  0.35218510  0.92570136    -0.14400
C413        C  0.28616076  0.38582689  0.92133834     0.36200
C414        C  0.31628031  0.39343427  0.90091031    -0.25800
C415        C  0.32285312  0.36897428  0.88050758    -0.15000
C416        C  0.29780111  0.33585752  0.88075519     0.37300
N417        N  0.30096521  0.31077184  0.85606907    -0.89300
H418        H  0.25103170  0.30177417  0.90689289     0.18400
H419        H  0.33487561  0.41899691  0.90092084     0.18400
N420        N  0.27993103  0.41224780  0.93945767    -0.88300
H421        H  0.28094908  0.30163746  0.83671578     0.35800
H422        H  0.29877160  0.29120186  0.87412168     0.40900
H423        H  0.26068679  0.41386891  0.92393807     0.40500
H424        H  0.30054212  0.43516595  0.93611437     0.35400
C425        C  0.15626951  0.44772441  0.54063835    -0.26400
C426        C  0.16827598  0.42538994  0.55435335    -0.14400
C427        C  0.16819187  0.42083205  0.59575162     0.36200
C428        C  0.15655739  0.43883474  0.62188783    -0.25800
C429        C  0.14453615  0.46090672  0.60787998    -0.15000
C430        C  0.14393798  0.46494971  0.56651666     0.37300
N431        N  0.12955691  0.48487380  0.54938931    -0.89300
H432        H  0.15520135  0.45111814  0.50913701     0.18400
H433        H  0.15669580  0.43554558  0.65355234     0.18400
N434        N  0.17958079  0.39791506  0.61134807    -0.88300
H435        H  0.14864222  0.50470465  0.53501113     0.35800
H436        H  0.11890229  0.49482795  0.57071540     0.40900
H437        H  0.16190955  0.37393706  0.60425380     0.40500
H438        H  0.18008399  0.39942406  0.64228745     0.35400
C439        C  0.07560231  0.22725007  0.60994783    -0.26400
C440        C  0.07737720  0.22767644  0.56845823    -0.14400
C441        C  0.05814427  0.19853551  0.54671768     0.36200
C442        C  0.03893761  0.16914597  0.56684164    -0.25800
C443        C  0.03814390  0.16836743  0.60843997    -0.15000
C444        C  0.05615698  0.19787481  0.63007070     0.37300
N445        N  0.05573761  0.19777351  0.67248515    -0.89300
H446        H  0.09089567  0.24937399  0.62681299     0.18400
H447        H  0.02585256  0.14649598  0.54985351     0.18400
N448        N  0.05916910  0.19774402  0.50427933    -0.88300
H449        H  0.08017227  0.20540182  0.68182509     0.35800
H450        H  0.04758792  0.21537964  0.68279759     0.40900
H451        H  0.08369523  0.20429585  0.49476794     0.40500
H452        H  0.05188015  0.21554590  0.49417647     0.35400
C453        C  0.43951896  0.17166313  0.60092846    -0.26400
C454        C  0.43268107  0.16141318  0.56123399    -0.14400
C455        C  0.44383906  0.13856520  0.54464439     0.36200
C456        C  0.45959813  0.12470629  0.56828732    -0.25800
C457        C  0.46567772  0.13413783  0.60805020    -0.15000
C458        C  0.45618735  0.15821659  0.62461638     0.37300
N459        N  0.46212587  0.16763847  0.66568392    -0.89300
H460        H  0.42994695  0.18830919  0.61406240     0.18400
H461        H  0.96736521  0.10657844  0.55543486     0.18400
N462        N  0.43785568  0.12836182  0.50388918    -0.88300
H463        H  0.45305669  0.18511440  0.67342473     0.35800
H464        H  0.48784065  0.17947707  0.66941023     0.40900
H465        H  0.42367481  0.10261099  0.50278223     0.40500
H466        H  0.46079004  0.13371734  0.48988206     0.35400
C467        C  0.34778514  0.03323104  0.42470346    -0.26400
C468        C  0.35231572  0.04268810  0.38495375    -0.14400
C469        C  0.34404205  0.06849053  0.37328246     0.36200
C470        C  0.33317609  0.08508944  0.40214034    -0.25800
C471        C  0.32871365  0.07556894  0.44210184    -0.15000
C472        C  0.33439825  0.04792821  0.45279160     0.37300
N473        N  0.32647934  0.03462371  0.49204561    -0.89300
H474        H  0.35417600  0.01361349  0.43382146     0.18400
H475        H  0.32831887  0.10570995  0.39312299     0.18400
N476        N  0.34531897  0.07788477  0.33263702    -0.88300
H477        H  0.33241386  0.01449937  0.49488152     0.35800
H478        H  0.30065505  0.02514986  0.49592259     0.40900
H479        H  0.35099878  0.06237120  0.31328867     0.40500
H480        H  0.36429965  0.10189724  0.32976086     0.35400
C481        C  0.17865901  0.05814237  0.59228356    -0.26400
C482        C  0.17931674  0.03400243  0.61770472    -0.14400
C483        C  0.20932615  0.03148890  0.62297252     0.36200
C484        C  0.23795711  0.05244819  0.60203533    -0.25800
C485        C  0.23746255  0.07665001  0.57647905    -0.15000
C486        C  0.20741605  0.07950473  0.57171673     0.37300
N487        N  0.20621372  0.10478780  0.54735334    -0.89300
H488        H  0.15572104  0.06066773  0.58880469     0.18400
H489        H  0.26085267  0.05004124  0.60633843     0.18400
N490        N  0.21116965  0.00868507  0.65081456    -0.88300
H491        H  0.19840930  0.11977904  0.56507826     0.35800
H492        H  0.18829971  0.09324205  0.52573265     0.40900
H493        H  0.21987377  0.99313401  0.63571907     0.40500
H494        H  0.22875258  0.02234376  0.67199922     0.35400
C495        C  0.42399319  0.27794987  0.39192495    -0.26400
C496        C  0.42680493  0.27576101  0.43296517    -0.14400
C497        C  0.45067366  0.30324693  0.45377352     0.36200
C498        C  0.46841093  0.33308135  0.43380528    -0.25800
C499        C  0.46494115  0.33552688  0.39298772    -0.15000
C500        C  0.44319429  0.30734508  0.37161231     0.37300
N501        N  0.43973852  0.30916501  0.32964387    -0.89300
H502        H  0.40549992  0.25702822  0.37598348     0.18400
H503        H  0.48419107  0.35477278  0.45078117     0.18400
N504        N  0.45752687  0.30206646  0.49486949    -0.88300
H505        H  0.42240010  0.28638821  0.31840459     0.35800
H506        H  0.46262694  0.31355959  0.31611499     0.40900
H507        H  0.44243344  0.27903050  0.50702613     0.40500
H508        H  0.45274627  0.32024671  0.51019742     0.35400
C509        C  0.19399972  0.16691575  0.37983120    -0.26400
C510        C  0.16878065  0.13443213  0.38346435    -0.14400
C511        C  0.17389774  0.11194152  0.40811619     0.36200
C512        C  0.20382936  0.12248425  0.42862709    -0.25800
C513        C  0.22869582  0.15514582  0.42572418    -0.15000
C514        C  0.22383090  0.17756756  0.40076555     0.37300
N515        N  0.24945085  0.21075547  0.39594952    -0.89300
H516        H  0.19050814  0.18396032  0.36022593     0.18400
H517        H  0.20755809  0.10513456  0.44751002     0.18400
N518        N  0.14865080  0.07848708  0.41244785    -0.88300
H519        H  0.24175938  0.22413644  0.37692906     0.35800
H520        H  0.26991573  0.20893615  0.38210605     0.40900
H521        H  0.12788042  0.07958922  0.42628658     0.40500
H522        H  0.15655626  0.06507920  0.43115978     0.35400
C523        C  0.38570074  0.29613433  0.56088728    -0.26400
C524        C  0.35457543  0.26918870  0.56550302    -0.14400
C525        C  0.33173755  0.27168103  0.59394783     0.36200
C526        C  0.34125757  0.30091393  0.61743410    -0.25800
C527        C  0.37272865  0.32794962  0.61251046    -0.15000
C528        C  0.39485803  0.32538534  0.58319428     0.37300
N529        N  0.42602220  0.35273014  0.57360408    -0.89300
H530        H  0.40255608  0.29484459  0.53817111     0.18400
H531        H  0.32394751  0.30257515  0.63958617     0.18400
N532        N  0.29934486  0.24503309  0.60057710    -0.88300
H533        H  0.44192829  0.35837665  0.59757714     0.35800
H534        H  0.42169042  0.37337609  0.56742495     0.40900
H535        H  0.29572417  0.22427605  0.58285084     0.40500
H536        H  0.28174718  0.25329265  0.59229198     0.35400
C537        C  0.19409279  0.04122830  0.88581515    -0.26400
C538        C  0.16318994  0.03864113  0.90028124    -0.14400
C539        C  0.16153290  0.05452051  0.93615032     0.36200
C540        C  0.19090012  0.07460991  0.95569355    -0.25800
C541        C  0.22201291  0.07891585  0.94010367    -0.15000
C542        C  0.22368338  0.06118597  0.90564221     0.37300
N543        N  0.25541118  0.06521101  0.88965610    -0.89300
H544        H  0.19515829  0.02858668  0.85835902     0.18400
H545        H  0.18951669  0.08809233  0.98230508     0.18400
N546        N  0.13004265  0.05066369  0.95238535    -0.88300
H547        H  0.25229836  0.05106531  0.86361433     0.35800
H548        H  0.26597298  0.05550492  0.91010009     0.40900
H549        H  0.12740583  0.04079094  0.98070485     0.40500
H550        H  0.13042526  0.07422171  0.95532778     0.35400
C551        C  0.20094868  0.14180187  0.04665466    -0.26400
C552        C  0.23173376  0.15013748  0.06443429    -0.14400
C553        C  0.23277240  0.14720965  0.10597259     0.36200
C554        C  0.20310576  0.13723071  0.12857710    -0.25800
C555        C  0.17235876  0.12904442  0.11056035    -0.15000
C556        C  0.17131917  0.13021558  0.06907942     0.37300
N557        N  0.14006442  0.11812872  0.04947026    -0.89300
H558        H  0.19967599  0.14272150  0.01472092     0.18400
H559        H  0.20402505  0.13576499  0.16047113     0.18400
N560        N  0.26322236  0.15473765  0.12624867    -0.88300
H561        H  0.13827643  0.09844801  0.03066960     0.35800
H562        H  0.14018358  0.13711992  0.03186826     0.40900
H563        H  0.28375551  0.16342947  0.10691421     0.40500
H564        H  0.26155195  0.13261034  0.13804786     0.35400
C565        C  0.46357310  0.14644431  0.92827918    -0.26400
C566        C  0.45663110  0.14556796  0.88804174    -0.14400
C567        C  0.43324183  0.15684403  0.87593889     0.36200
C568        C  0.41717830  0.16871393  0.90469029    -0.25800
C569        C  0.42425677  0.16970985  0.94529793    -0.15000
C570        C  0.44821175  0.15870043  0.95676437     0.37300
N571        N  0.45699404  0.15944063  0.99740621    -0.89300
H572        H  0.48126690  0.13751918  0.93780223     0.18400
H573        H  0.39876673  0.17676386  0.89533659     0.18400
N574        N  0.42583226  0.15604627  0.83466608    -0.88300
H575        H  0.48262162  0.17397311  0.99969622     0.35800
H576        H  0.45185246  0.13522347  0.00556408     0.40900
H577        H  0.44750142  0.17239180  0.82006111     0.40500
H578        H  0.40792639  0.16497219  0.83068723     0.35400
C579        C  0.34930535  0.05186665  0.12749429    -0.26400
C580        C  0.36560636  0.03507253  0.10723343    -0.14400
C581        C  0.36693860  0.03504903  0.06550147     0.36200
C582        C  0.35221591  0.05203520  0.04488265    -0.25800
C583        C  0.33671431  0.06968988  0.06496357    -0.15000
C584        C  0.33478922  0.06918752  0.10693439     0.37300
N585        N  0.32028320  0.08749673  0.12971928    -0.89300
H586        H  0.34785914  0.55159154  0.15935647     0.18400
H587        H  0.35489484  0.05350123  0.01288772     0.18400
N588        N  0.38424269  0.01866587  0.04429406    -0.88300
H589        H  0.30024213  0.07033465  0.14603316     0.35800
H590        H  0.31037733  0.09949235  0.11165239     0.40900
H591        H  0.38291812  0.02089781  0.01372093     0.40500
H592        H  0.40938804  0.03092336  0.05152245     0.35400
C593        C  0.44944752  0.32271169  0.09376993    -0.26400
C594        C  0.46933431  0.31996111  0.12367167    -0.14400
C595        C  0.46776348  0.28870856  0.13226890     0.36200
C596        C  0.44652454  0.26067436  0.11067721    -0.25800
C597        C  0.42600960  0.26305909  0.08100514    -0.15000
C598        C  0.42745929  0.29459684  0.07263861     0.37300
N599        N  0.40589044  0.29793752  0.04390690    -0.89300
H600        H  0.45042712  0.34687673  0.08775777     0.18400
H601        H  0.44579823  0.23679725  0.11771559     0.18400
N602        N  0.98677870  0.28516843  0.16383764    -0.88300
H603        H  0.41055479  0.32285668  0.04098678     0.35800
H604        H  0.38150401  0.28569514  0.05490905     0.40900
H605        H  0.97020831  0.26885613  0.18442544     0.40500
H606        H  0.00171769  0.27419433  0.15215036     0.35400
C607        C  0.36064726  0.27688424  0.89070089    -0.26400
C608        C  0.35097849  0.27654161  0.93052043    -0.14400
C609        C  0.35141536  0.30572513  0.94858915     0.36200
C610        C  0.36052902  0.33425275  0.92570856    -0.25800
C611        C  0.36887709  0.33414112  0.88528064    -0.15000
C612        C  0.36932645  0.30523409  0.86790566     0.37300
N613        N  0.37743248  0.30420951  0.82669704    -0.89300
H614        H  0.36059367  0.25464155  0.87686701     0.18400
H615        H  0.36105536  0.35666222  0.93957004     0.18400
N616        N  0.34397209  0.30774458  0.98999957    -0.88300
H617        H  0.35721531  0.28504243  0.81306204     0.35800
H618        H  0.39780501  0.29839312  0.82430815     0.40900
H619        H  0.33883715  0.28562355  0.00445225     0.40500
H620        H  0.32244919  0.31164655  0.99221706     0.35400
O621        O  0.36184718  0.61945722  0.02966521    -0.80900
O622        O  0.36202157  0.73507835  0.95795023    -0.65600
O623        O  0.34287605  0.66915338  0.03445614    -1.12200
C624        C  0.25191655  0.60774046  0.95532501     1.06000
O625        O  0.31010084  0.72993054  0.96328377    -0.78800
O626        O  0.26783830  0.68160500  0.01352036    -0.66400
Ni627      Ni  0.37851226  0.66216259  0.05416139     1.34900
C628        C  0.26072301  0.65800722  0.03764283     0.84700
O629        O  0.39167099  0.73454437  0.02651901    -0.79400
O630        O  0.39610724  0.70537700  0.07756587    -0.89600
C631        C  0.34035821  0.74562412  0.95166965     0.84300
O632        O  0.41017900  0.67830622  0.01176747    -0.67800
O633        O  0.25147837  0.63615519  0.95289745    -0.87100
C634        C  0.40457161  0.67956543  0.97554994     0.85100
C635        C  0.40315242  0.73285078  0.06047309     1.06700
H636        H  0.32426927  0.66553274  0.94359659     0.38500
O637        O  0.31705198  0.67059582  0.96914269    -1.09800
O638        O  0.27454175  0.63816914  0.03610303    -0.66400
Ni639      Ni  0.30963616  0.63482039  0.00353665     1.26300
O640        O  0.38158293  0.68711923  0.96495760    -0.66700
O641        O  0.27558130  0.60312478  0.97067501    -0.79000
C642        C  0.33483621  0.59721565  0.04266014     0.84500
O643        O  0.30771577  0.59980724  0.03778560    -0.66100
Ni644      Ni  0.28197567  0.68236690  0.95955507     1.27400
Ni645      Ni  0.35416647  0.70270746  0.99674519     1.26100
H646        H  0.33225584  0.67490438  0.05675681     0.39000
O647        O  0.27663728  0.69475601  0.45921007    -0.80900
O648        O  0.40358545  0.69297463  0.53833866    -0.65600
O649        O  0.33474934  0.68545068  0.46725720    -1.12200
C650        C  0.26898841  0.59989817  0.55741647     1.06000
O651        O  0.38268755  0.63913725  0.52858693    -0.78800
O652        O  0.32456972  0.59152774  0.50962088    -0.66400
Ni653      Ni  0.32452140  0.72139076  0.45681617     1.34900
C654        C  0.32189868  0.59660708  0.47354435     0.84700
O655        O  0.40284668  0.72546714  0.47045058    -0.79400
O656        O  0.37122990  0.75037078  0.45022775    -0.89600
C657        C  0.40556091  0.66549624  0.54186717     0.84300
O658        O  0.32449582  0.73571397  0.51093966    -0.67800
O659        O  0.29607175  0.60534424  0.57462455    -0.87100
C660        C  0.34707728  0.74146139  0.53617708     0.85100
C661        C  0.39912781  0.74877652  0.45293059     1.06700
H662        H  0.32838459  0.66978143  0.55512294     0.38500
O663        O  0.33406679  0.65912009  0.53287263    -1.09800
O664        O  0.31517555  0.62019776  0.46319484    -0.66400
Ni665      Ni  0.30118417  0.64909010  0.49450914     1.26300
O666        O  0.36658329  0.72726621  0.53469169    -0.66700
O667        O  0.26800313  0.61249283  0.52400060    -0.79000
C668        C  0.26016282  0.66473503  0.44737613     0.84500
O669        O  0.26945824  0.64238531  0.45512498    -0.66100
Ni670      Ni  0.33979201  0.62278706  0.55238391     1.27400
Ni671      Ni  0.36967598  0.69195738  0.50279667     1.26100
H672        H  0.33999066  0.67788474  0.44198990     0.39000
O673        O  0.43327266  0.53879825  0.70699006    -0.74500
O674        O  0.39020901  0.96957510  0.78648087    -0.74500
O675        O  0.42575705  0.54342948  0.78578755    -0.74500
O676        O  0.39778022  0.96868283  0.70779367    -0.74600
O677        O  0.44341142  0.96531153  0.72322637    -0.74500
O678        O  0.47047282  0.53631706  0.79736349    -0.74500
O679        O  0.43967171  0.97521041  0.80238124    -0.74500
O680        O  0.47851332  0.53208948  0.71716046    -0.74500
Ni681      Ni  0.40940794  0.50544561  0.74732968     1.25400
Ni682      Ni  0.45943098  0.50219177  0.76000284     1.25400
C683        C  0.46453829  0.54747582  0.69976805     0.87700
C684        C  0.40913154  0.95802279  0.80250849     0.87700
C685        C  0.45555885  0.55452960  0.79962226     0.87700
C686        C  0.41651599  0.95335410  0.70427074     0.87900
O687        O  0.10855738  0.56784357  0.71468346    -0.74500
O688        O  0.06621969  0.60860085  0.78926566    -0.74500
O689        O  0.10283090  0.57041838  0.79499425    -0.74500
O690        O  0.07040861  0.60445475  0.70916482    -0.74600
O691        O  0.03533616  0.55224661  0.69875879    -0.74500
O692        O  0.05037549  0.53512918  0.80377393    -0.74500
O693        O  0.02019838  0.56819173  0.76943210    -0.74500
O694        O  0.06788289  0.52142040  0.73298264    -0.74500
Ni695      Ni  0.08987290  0.59066445  0.75208790     1.25400
Ni696      Ni  0.04164729  0.54242786  0.75121386     1.25400
C697        C  0.09426001  0.53571443  0.71322414     0.87700
C698        C  0.03402820  0.59430663  0.78962718     0.87700
C699        C  0.08069641  0.54402118  0.81131323     0.87700
C700        C  0.04418327  0.58268581  0.69221529     0.87900
O701        O  0.03841036  0.93347271  0.79412990    -0.74500
O702        O  0.46989457  0.89136393  0.71281058    -0.74500
O703        O  0.04390514  0.92740131  0.71488023    -0.74500
O704        O  0.46804268  0.89793751  0.79158238    -0.74600
O705        O  0.46499934  0.94389037  0.77716533    -0.74500
O706        O  0.03622911  0.97182668  0.70387961    -0.74500
O707        O  0.47542283  0.94090603  0.69797351    -0.74500
O708        O  0.03173328  0.97867365  0.78428760    -0.74500
Ni709      Ni  0.00540078  0.91022166  0.75305363     1.25400
Ni710      Ni  0.00198694  0.96018769  0.74115904     1.25400
C711        C  0.04691017  0.96456028  0.80187647     0.87700
C712        C  0.45834293  0.91037703  0.69699508     0.87700
C713        C  0.05469068  0.95723175  0.70117962     0.87700
C714        C  0.45264486  0.91662844  0.79529032     0.87900
C715        C  0.48451971  0.62047329  0.63074462     0.02300
C716        C  0.01941945  0.63653560  0.62954466     0.02200
C717        C  0.03741101  0.62238884  0.64876078    -0.18300
C718        C  0.02157166  0.59272308  0.66992182     0.02300
C719        C  0.48527252  0.57649625  0.67277814     0.02200
C720        C  0.46785467  0.59088235  0.65183807    -0.18300
H721        H  0.44088345  0.57944172  0.65252092     0.04300
H722        H  0.06437873  0.63502864  0.64749173     0.04300
C723        C  0.13218344  0.97868988  0.63644312     0.02300
C724        C  0.14935655  0.51408633  0.64177178     0.02200
C725        C  0.13653213  0.53073573  0.66775746    -0.18300
C726        C  0.10653356  0.51405777  0.68856061     0.02300
C727        C  0.08879620  0.97746162  0.68351269     0.02200
C728        C  0.10288887  0.96099578  0.65862231    -0.18300
H729        H  0.08982220  0.93429445  0.65445985     0.04300
H730        H  0.14993525  0.55750881  0.67084476     0.04300
C731        C  0.37675245  0.86396885  0.86034978     0.02300
C732        C  0.35528825  0.87994205  0.85783773     0.02200
C733        C  0.36644459  0.90946236  0.83632854    -0.18300
C734        C  0.39821536  0.92409845  0.81883445     0.02300
C735        C  0.41955131  0.90664264  0.81875373     0.02200
C736        C  0.40785838  0.87709457  0.84024271    -0.18300
H737        H  0.42361347  0.86424511  0.84217935     0.04300
H738        H  0.35055779  0.92219745  0.83456789     0.04300
C739        C  0.38212916  0.85859796  0.63731304     0.02300
C740        C  0.36518307  0.87916939  0.63625785     0.02200
C741        C  0.37766134  0.90957289  0.65772554    -0.18300
C742        C  0.40699860  0.92086426  0.67987196     0.02300
C743        C  0.42462420  0.89964451  0.67965272     0.02200
C744        C  0.41059902  0.86855526  0.66051468    -0.18300
H745        H  0.42312059  0.85246157  0.66193041     0.04300
H746        H  0.36430363  0.92490682  0.65666522     0.04300
C747        C  0.13306733  0.52015726  0.87726003     0.02300
C748        C  0.11874407  0.98504826  0.87403284     0.02200
C749        C  0.09014928  0.96799019  0.85099403    -0.18300
C750        C  0.07524422  0.98505950  0.82997591     0.02300
C751        C  0.09032316  0.52151377  0.83443061     0.02200
C752        C  0.11836411  0.53762745  0.85812297    -0.18300
H753        H  0.12966380  0.56452189  0.86091201     0.04300
H754        H  0.07994013  0.94114894  0.84889151     0.04300
C755        C  0.47509115  0.63379932  0.85971236     0.02300
C756        C  0.01017789  0.65008967  0.85703645     0.02200
C757        C  0.02770516  0.63691714  0.83297781    -0.18300
C758        C  0.01169902  0.60652836  0.81297015     0.02300
C759        C  0.47531894  0.58891266  0.81653304     0.02200
C760        C  0.45803080  0.60375639  0.83883729    -0.18300
H761        H  0.43121156  0.59072959  0.84223927     0.04300
H762        H  0.05458006  0.65034075  0.83089439     0.04300
O763        O  0.11832711  0.86097740  0.47201043    -0.80900
O764        O  0.23341525  0.86309345  0.54214217    -0.65600
O765        O  0.16746600  0.84311118  0.46517046    -1.12200
C766        C  0.10510373  0.75497975  0.54922930     1.06000
O767        O  0.22738911  0.81099171  0.53817897    -0.78800
O768        O  0.17745361  0.76582465  0.49208071    -0.66400
Ni769      Ni  0.16003158  0.87842754  0.44574910     1.34900
C770        C  0.15547160  0.75992063  0.46596039     0.84700
O771        O  0.23237365  0.89181628  0.47275234    -0.79400
O772        O  0.20312457  0.89689947  0.42192418    -0.89600
C773        C  0.24363867  0.84127617  0.54913482     0.84300
O774        O  0.17558839  0.91061592  0.48749160    -0.67800
O775        O  0.13349274  0.75493738  0.55410664    -0.87100
C776        C  0.17734773  0.90525355  0.52369813     0.85100
C777        C  0.23055305  0.90366870  0.43908515     1.06700
H778        H  0.16282244  0.82620689  0.55614917     0.38500
O779        O  0.16828191  0.81832687  0.53128572    -1.09800
O780        O  0.13665410  0.77483927  0.46514229    -0.66400
Ni781      Ni  0.13267584  0.81008322  0.49616716     1.26300
O782        O  0.18544642  0.88266263  0.53414355    -0.66700
O783        O  0.10047041  0.77663242  0.52928761    -0.79000
C784        C  0.09529725  0.83494537  0.45866030     0.84500
O785        O  0.09769467  0.80758739  0.46116230    -0.66100
Ni786      Ni  0.17976153  0.78388000  0.54443832     1.27400
Ni787      Ni  0.20080143  0.85481018  0.50311928     1.26100
H788        H  0.17334876  0.83255928  0.44302317     0.39000
O789        O  0.18748368  0.76924466  0.02870190    -0.80900
O790        O  0.19175447  0.90312619  0.96580463    -0.65600
O791        O  0.18273692  0.82960116  0.02944886    -1.12200
C792        C  0.09328211  0.77111589  0.94071928     1.06000
O793        O  0.13771877  0.88412766  0.97484821    -0.78800
O794        O  0.08899198  0.82525764  0.99201591    -0.66400
Ni795      Ni  0.21744547  0.81618878  0.03342891     1.34900
C796        C  0.09508237  0.82249306  0.02772254     0.84700
O797        O  0.22587430  0.89659109  0.03010522    -0.79400
O798        O  0.24949350  0.86178731  0.04161368    -0.89600
C799        C  0.16489790  0.90648821  0.96232539     0.84300
O800        O  0.22877332  0.81832531  0.97779357    -0.67800
O801        O  0.10058981  0.79892546  0.92435271    -0.87100
C802        C  0.23586917  0.84352270  0.95617773     0.85100
C803        C  0.24994459  0.89073977  0.04230451     1.06700
H804        H  0.16508155  0.82815941  0.94332834     0.38500
O805        O  0.15519428  0.83366414  0.96656724    -1.09800
O806        O  0.11818375  0.81453791  0.03675262    -0.66400
Ni807      Ni  0.14423996  0.79896300  0.00260086     1.26300
O808        O  0.22286415  0.86365207  0.96218567    -0.66700
O809        O  0.10557410  0.76864480  0.97375904    -0.79000
C810        C  0.15865905  0.75497452  0.04506724     0.84500
O811        O  0.13675187  0.76548811  0.03994486    -0.66100
Ni812      Ni  0.11969530  0.84186233  0.94893403     1.27400
Ni813      Ni  0.18978776  0.86668242  0.99764607     1.26100
H814        H  0.17675557  0.83386003  0.05599452     0.39000
O815        O  0.46782388  0.52278239  0.21783601    -0.74500
O816        O  0.02582481  0.56014072  0.30249567    -0.74500
O817        O  0.46475137  0.53053945  0.29834741    -0.74500
O818        O  0.03475338  0.55643410  0.22274849    -0.74600
O819        O  0.03307822  0.60342106  0.21021163    -0.74500
O820        O  0.45691539  0.57463102  0.28582238    -0.74500
O821        O  0.03051700  0.60976269  0.28905656    -0.74500
O822        O  0.46255853  0.56853278  0.20696754    -0.74500
Ni823      Ni  0.49838083  0.54109882  0.26005903     1.25400
Ni824      Ni  0.49553791  0.59140997  0.24827615     1.25400
C825        C  0.45309440  0.53717333  0.20004556     0.87700
C826        C  0.04226130  0.59075048  0.30445495     0.87700
C827        C  0.44612107  0.54501098  0.29994379     0.87700
C828        C  0.04773986  0.58414087  0.20542251     0.87900
O829        O  0.43242428  0.89930650  0.29456378    -0.74500
O830        O  0.39815814  0.93137882  0.20829163    -0.74500
O831        O  0.43521190  0.89343641  0.21464597    -0.74500
O832        O  0.39341066  0.93497035  0.28834438    -0.74600
O833        O  0.43388073  0.98127537  0.26926102    -0.74500
O834        O  0.48143531  0.93467174  0.23240409    -0.74500
O835        O  0.45029249  0.96695377  0.19822845    -0.74500
O836        O  0.46759373  0.95173661  0.30320763    -0.74500
Ni837      Ni  0.41201307  0.91195210  0.25146996     1.25400
Ni838      Ni  0.46009418  0.96046814  0.25072368     1.25400
C839        C  0.45887749  0.92149053  0.31073290     0.87700
C840        C  0.41978688  0.95786813  0.19152642     0.87700
C841        C  0.46736366  0.90782757  0.21358477     0.87700
C842        C  0.40744238  0.96706943  0.28890036     0.87900
C843        C  0.34910131  0.98938034  0.35346693     0.02300
C844        C  0.36537112  0.52432462  0.35761987     0.02200
C845        C  0.39610473  0.54168950  0.33805382    -0.18300
C846        C  0.41155099  0.52488878  0.31604039     0.02300
C847        C  0.39432481  0.98883526  0.31161362     0.02200
C848        C  0.36337304  0.97239673  0.33026997    -0.18300
H849        H  0.35033172  0.94554549  0.32784812     0.04300
H850        H  0.40904472  0.56841242  0.34205621     0.04300
O851        O  0.02396257  0.97053226  0.28381010    -0.74500
O852        O  0.06077471  0.52566867  0.19692837    -0.74500
O853        O  0.03114947  0.96515344  0.20373555    -0.74500
O854        O  0.05858367  0.53713723  0.27580613    -0.74600
O855        O  0.10483662  0.53469616  0.29025158    -0.74500
O856        O  0.07580988  0.95814223  0.21570981    -0.74500
O857        O  0.11071164  0.53166872  0.21139636    -0.74500
O858        O  0.06969753  0.96484185  0.29420362    -0.74500
Ni859      Ni  0.04212343  0.99974722  0.24049410     1.25400
Ni860      Ni  0.09259370  0.99719504  0.25260420     1.25400
C861        C  0.03840174  0.95585006  0.30153124     0.87700
C862        C  0.09125876  0.54272206  0.19563337     0.87700
C863        C  0.04585173  0.94675990  0.20231920     0.87700
C864        C  0.08582405  0.54972270  0.29405121     0.87900
C865        C  0.36591927  0.98133986  0.12682138     0.02300
C866        C  0.38004816  0.51635026  0.12939370     0.02200
C867        C  0.40858829  0.53340843  0.15261193    -0.18300
C868        C  0.42411040  0.51652267  0.17285105     0.02300
C869        C  0.40944481  0.98031768  0.16897185     0.02200
C870        C  0.38090997  0.96409641  0.14610405    -0.18300
H871        H  0.36971296  0.93719265  0.14356686     0.04300
H872        H  0.41871876  0.56024581  0.15486033     0.04300
C873        C  0.13683818  0.62387185  0.36219227     0.02300
C874        C  0.11769630  0.64237175  0.36527193     0.02200
C875        C  0.08802343  0.63149797  0.34433614    -0.18300
C876        C  0.07578708  0.60178472  0.32205777     0.02300
C877        C  0.09512883  0.58219592  0.31860184     0.02200
C878        C  0.12566423  0.59478094  0.33837290    -0.18300
H879        H  0.14112875  0.58155173  0.33557317     0.04300
H880        H  0.07332803  0.64556177  0.34714523     0.04300
C881        C  0.14147953  0.61841633  0.13570588     0.02300
C882        C  0.12084213  0.63533590  0.13604983     0.02200
C883        C  0.09166792  0.62376119  0.15978704    -0.18300
C884        C  0.08036576  0.59396051  0.18083012     0.02300
C885        C  0.10139970  0.57604904  0.17848646     0.02200
C886        C  0.13171112  0.58942537  0.15746966    -0.18300
H887        H  0.14708946  0.57601803  0.15607302     0.04300
H888        H  0.07711967  0.63799600  0.16083251     0.04300
C889        C  0.01871280  0.88262178  0.36965792     0.02300
C890        C  0.48387238  0.86809628  0.37350950     0.02200
C891        C  0.46601052  0.88322773  0.35600265    -0.18300
C892        C  0.48176821  0.91198032  0.33335325     0.02300
C893        C  0.01798089  0.92719753  0.32888894     0.02200
C894        C  0.03539277  0.91204343  0.34835926    -0.18300
H895        H  0.06231544  0.92264615  0.34621510     0.04300
H896        H  0.43908442  0.87160515  0.35898730     0.04300
C897        C  0.02470757  0.86615894  0.14483443     0.02300
C898        C  0.48974460  0.84994993  0.14834925     0.02200
C899        C  0.47274132  0.86380518  0.17214383    -0.18300
C900        C  0.48926621  0.89469572  0.19103566     0.02300
C901        C  0.02563401  0.91194683  0.18690890     0.02200
C902        C  0.04235908  0.89641719  0.16495193    -0.18300
H903        H  0.06912876  0.90922977  0.16075166     0.04300
H904        H  0.44584323  0.85076517  0.17437998     0.04300
C905        C  0.16066710  0.69281889  0.11893139    -0.26400
C906        C  0.12976452  0.66581823  0.11246875    -0.14400
C907        C  0.10831001  0.66852476  0.08383582     0.36200
C908        C  0.11843061  0.69816383  0.06300479    -0.25800
C909        C  0.14974326  0.72481038  0.06873278    -0.15000
C910        C  0.17095249  0.72229535  0.09779431     0.37300
N911        N  0.20240632  0.74916348  0.10790592    -0.89300
H912        H  0.17688658  0.69119330  0.14131080     0.18400
H913        H  0.10193384  0.69999595  0.04112107     0.18400
N914        N  0.07669097  0.64171259  0.07412307    -0.88300
H915        H  0.20140990  0.75443389  0.13813361     0.35800
H916        H  0.20644597  0.77109092  0.09381789     0.40900
H917        H  0.07298277  0.61974196  0.08792958     0.40500
H918        H  0.07721381  0.63657327  0.04379693     0.35400
C919        C  0.05798080  0.84896479  0.04700873    -0.26400
C920        C  0.07552659  0.83097106  0.05871949    -0.14400
C921        C  0.07586039  0.82419846  0.09934540     0.36200
C922        C  0.05953627  0.83647510  0.12712895    -0.25800
C923        C  0.04250031  0.85471900  0.11501047    -0.15000
C924        C  0.04186736  0.86117597  0.07439483     0.37300
N925        N  0.02546391  0.88021800  0.05969547    -0.89300
H926        H  0.05753004  0.85473145  0.01611640     0.18400
H927        H  0.05972002  0.83149767  0.15833745     0.18400
N928        N  0.09252389  0.80491804  0.11227275    -0.88300
H929        H  0.04358500  0.90124286  0.04606074     0.35800
H930        H  0.01492216  0.88905614  0.08238106     0.40900
H931        H  0.07997052  0.78094521  0.10033842     0.40500
H932        H  0.09060394  0.80254130  0.14307043     0.35400
C933        C  0.27660142  0.93761615  0.09026003    -0.26400
C934        C  0.28023334  0.91805564  0.05886361    -0.14400
C935        C  0.31279450  0.92162160  0.04827739     0.36200
C936        C  0.34010030  0.94358943  0.06986454    -0.25800
C937        C  0.33622808  0.96175038  0.10236703    -0.15000
C938        C  0.30421409  0.95895979  0.11246254     0.31500
N939        N  0.29938161  0.97628868  0.14650133    -0.89300
H940        H  0.25196003  0.93471686  0.09927349     0.18400
H941        H  0.36471947  0.94584075  0.06179522     0.18400
N942        N  0.31947214  0.90351544  0.01606005    -0.88300
H943        H  0.28309679  0.95868952  0.16614787     0.35800
H944        H  0.28781035  0.99089683  0.13733238     0.40900
H945        H  0.29804602  0.88826758  0.00110816     0.40500
H946        H  0.32892783  0.88798189  0.02797551     0.35400
C947        C  0.13380597  0.70315851  0.37427064    -0.26400
C948        C  0.12731962  0.67251855  0.39146073    -0.14400
C949        C  0.13046471  0.67138793  0.43298360     0.36200
C950        C  0.14259593  0.70101108  0.45528877    -0.25800
C951        C  0.14886874  0.73158634  0.43826254    -0.15000
C952        C  0.14422440  0.73264784  0.39708054     0.37300
N953        N  0.15010635  0.76292075  0.37730705    -0.89300
H954        H  0.13099676  0.70421397  0.34263033     0.18400
H955        H  0.14484673  0.69971217  0.48703311     0.18400
N956        N  0.12034131  0.64071173  0.45379191    -0.88300
H957        H  0.16854406  0.76684692  0.35558498     0.35800
H958        H  0.15986115  0.78344085  0.39644323     0.40900
H959        H  0.10792403  0.62034027  0.43512477     0.40500
H960        H  0.10252272  0.63972541  0.47519238     0.35400
C961        C  0.06018013  0.82804863  0.39992642    -0.26400
C962        C  0.06863399  0.83962345  0.43900043    -0.14400
C963        C  0.05936467  0.86431501  0.45468748     0.36200
C964        C  0.04597323  0.87965976  0.43012134    -0.25800
C965        C  0.03799337  0.86869585  0.39118089    -0.15000
C966        C  0.04414483  0.84204479  0.37595928     0.37300
N967        N  0.53449391  0.82975733  0.33636412    -0.89300
H968        H  0.06760531  0.80954407  0.38754930     0.18400
H969        H  0.03998144  0.89924416  0.44221952     0.18400
N970        N  0.06273916  0.87399636  0.49579553    -0.88300
H971        H  0.54062636  0.81000441  0.32977795     0.35800
H972        H  0.54844036  0.84881789  0.31689133     0.40900
H973        H  0.08775291  0.88677777  0.50309745     0.40500
H974        H  0.05159641  0.85261295  0.51285134     0.35400
C975        C  0.32004756  0.94565410  0.40253823    -0.26400
C976        C  0.31862665  0.96894106  0.37640744    -0.14400
C977        C  0.28860009  0.97174146  0.37201788     0.36200
C978        C  0.26033601  0.95071353  0.39366990    -0.25800
C979        C  0.26147348  0.92662024  0.41896589    -0.15000
C980        C  0.29175722  0.92421088  0.42358875     0.37300
N981        N  0.29353142  0.89943777  0.44862489    -0.89300
H982        H  0.34337141  0.94388455  0.40595792     0.18400
H983        H  0.23719851  0.95287009  0.39040238     0.18400
N984        N  0.28704462  0.49559736  0.34583568    -0.88300
H985        H  0.31780293  0.90144973  0.44912487     0.35800
H986        H  0.27886870  0.87618126  0.43599101     0.40900
H987        H  0.29130757  0.48881440  0.31711670     0.40500
H988        H  0.26320437  0.49476379  0.34641412     0.35400
C989        C  0.02601836  0.70962239  0.87379759    -0.26400
C990        C  0.02973839  0.68056077  0.88038759    -0.14400
C991        C  0.05267432  0.68074038  0.90846306     0.36200
C992        C  0.07261114  0.71051210  0.92813308    -0.25800
C993        C  0.07007978  0.74016830  0.92046092    -0.15000
C994        C  0.04573497  0.73931881  0.89351147     0.37300
N995        N  0.03981227  0.76778720  0.88604507    -0.89300
H996        H  0.00800414  0.70933454  0.85265244     0.18400
H997        H  0.09071982  0.71062025  0.94900821     0.18400
N998        N  0.05583590  0.65070678  0.91651331    -0.88300
H999        H  0.06080531  0.78585853  0.87217001     0.35800
H1000       H  0.03515450  0.77713685  0.91305485     0.40900
H1001       H  0.03325962  0.63380932  0.92879991     0.40500
H1002       H  0.07391113  0.65508524  0.93783642     0.35400
C1003       C  0.16817713  0.93665518  0.90069061    -0.26400
C1004       C  0.16269623  0.93414144  0.94182707    -0.14400
C1005       C  0.14459976  0.94998496  0.96036800     0.36200
C1006       C  0.13041181  0.96611440  0.93752755    -0.25800
C1007       C  0.13382267  0.96671919  0.89611437    -0.15000
C1008       C  0.15407620  0.95292593  0.87751432     0.37300
N1009       N  0.16043596  0.45430550  0.83475411    -0.89300
H1010       H  0.18143482  0.92387027  0.88611416     0.18400
H1011       H  0.11599776  0.97766209  0.95216272     0.18400
N1012       N  0.13921271  0.94818302  0.00244474    -0.88300
H1013       H  0.18606628  0.46763858  0.82994450     0.35800
H1014       H  0.14926422  0.46736634  0.82069629     0.40900
H1015       H  0.11355374  0.93671410  0.00810998     0.40500
H1016       H  0.14848837  0.97243688  0.01391765     0.35400
C1017       C  0.27587173  0.85921219  0.61031615    -0.26400
C1018       C  0.27528496  0.85133989  0.56982708    -0.14400
C1019       C  0.30447408  0.85251792  0.55071830     0.36200
C1020       C  0.33369681  0.86238014  0.57256880    -0.25800
C1021       C  0.33408773  0.86953575  0.61340231    -0.15000
C1022       C  0.30469552  0.86754057  0.63234233     0.37300
N1023       N  0.30377569  0.87297831  0.67425966    -0.89300
H1024       H  0.25347812  0.85792927  0.62522455     0.18400
H1025       H  0.35622843  0.86424471  0.55753995     0.18400
N1026       N  0.30566179  0.84451828  0.50935179    -0.88300
H1027       H  0.29679851  0.89235852  0.67932235     0.35800
H1028       H  0.28539350  0.85147561  0.68672139     0.40900
H1029       H  0.28298836  0.83844021  0.49570376     0.40500
H1030       H  0.31018510  0.82337123  0.50733738     0.35400
C1031       C  0.26866931  0.82788406  0.90437666    -0.26400
C1032       C  0.26323801  0.85248233  0.92604502    -0.14400
C1033       C  0.28670308  0.88605577  0.92226029     0.36200
C1034       C  0.31667912  0.89356321  0.90151363    -0.25800
C1035       C  0.32270495  0.86914377  0.88026797    -0.15000
C1036       C  0.29733217  0.83620511  0.87999829     0.37300
N1037       N  0.30003678  0.81134775  0.85444888    -0.89300
H1038       H  0.25040679  0.80221432  0.90592627     0.18400
H1039       H  0.33555075  0.91900850  0.90181633     0.18400
N1040       N  0.28092094  0.91247727  0.94112436    -0.88300
H1041       H  0.27994952  0.80279941  0.83520346     0.35800
H1042       H  0.29766220  0.79137457  0.87187462     0.40900
H1043       H  0.26183404  0.91464876  0.92588476     0.40500
H1044       H  0.30175467  0.93527159  0.93812686     0.35400
C1045       C  0.15637505  0.94776363  0.54002439    -0.26400
C1046       C  0.16791789  0.92506786  0.55372075    -0.14400
C1047       C  0.16706327  0.91988909  0.59506236     0.36200
C1048       C  0.15534737  0.93781315  0.62118414    -0.25800
C1049       C  0.14386007  0.96030214  0.60719183    -0.15000
C1050       C  0.14377390  0.96476353  0.56586232     0.37300
N1051       N  0.12958513  0.98484243  0.54870442    -0.89300
H1052       H  0.15581803  0.95157105  0.50854360     0.18400
H1053       H  0.15501885  0.93415208  0.65281945     0.18400
N1054       N  0.17763553  0.89633708  0.61059981    -0.88300
H1055       H  0.14883188  0.00487883  0.53484095     0.35800
H1056       H  0.11853905  0.99446030  0.56995021     0.40900
H1057       H  0.15982257  0.87261199  0.60278421     0.40500
H1058       H  0.17753040  0.89733051  0.64156579     0.35400
C1059       C  0.07513548  0.72745143  0.60968390    -0.26400
C1060       C  0.07685922  0.72767604  0.56819290    -0.14400
C1061       C  0.05763424  0.69839011  0.54667063     0.36200
C1062       C  0.03847250  0.66910174  0.56702999    -0.25800
C1063       C  0.03777266  0.66852130  0.60864622    -0.15000
C1064       C  0.05580471  0.69816403  0.63003761     0.37300
N1065       N  0.05554785  0.69830448  0.67245033    -0.89300
H1066       H  0.09044044  0.74967031  0.62639015     0.18400
H1067       H  0.02539523  0.64635653  0.55020716     0.18400
N1068       N  0.05865159  0.69732830  0.50423895    -0.88300
H1069       H  0.08003098  0.70604653  0.68167327     0.35800
H1070       H  0.04738318  0.71592873  0.68265165     0.40900
H1071       H  0.08317856  0.70383618  0.49477567     0.40500
H1072       H  0.05135842  0.71505540  0.49390189     0.35400
C1073       C  0.43919286  0.67165018  0.60163160    -0.26400
C1074       C  0.43246927  0.66158162  0.56186234    -0.14400
C1075       C  0.44354456  0.63870568  0.54517827     0.36200
C1076       C  0.45926638  0.62476431  0.56872532    -0.25800
C1077       C  0.46534001  0.63410162  0.60850260    -0.15000
C1078       C  0.45577955  0.65806814  0.62524533     0.37300
N1079       N  0.46153595  0.66719712  0.66641250    -0.89300
H1080       H  0.42958267  0.68823242  0.61486375     0.18400
H1081       H  0.96693327  0.60658376  0.55583436     0.18400
N1082       N  0.43739591  0.62846591  0.50444780    -0.88300
H1083       H  0.45244199  0.68462718  0.67428987     0.35800
H1084       H  0.48723195  0.67898109  0.67033301     0.40900
H1085       H  0.42306394  0.60273717  0.50340709     0.40500
H1086       H  0.46025272  0.63366039  0.49033311     0.35400
C1087       C  0.34812773  0.53321319  0.42557970    -0.26400
C1088       C  0.35258970  0.54260298  0.38579141    -0.14400
C1089       C  0.34434035  0.56843363  0.37415246     0.36200
C1090       C  0.33329458  0.58491488  0.40297383    -0.25800
C1091       C  0.32894136  0.57552203  0.44298088    -0.15000
C1092       C  0.33495785  0.54808673  0.45377170     0.37300
N1093       N  0.32770496  0.53522918  0.49326609    -0.89300
H1094       H  0.35453994  0.51360530  0.43468056     0.18400
H1095       H  0.32831773  0.60544628  0.39389118     0.18400
N1096       N  0.34591506  0.57806555  0.33356093    -0.88300
H1097       H  0.33402688  0.51537028  0.49623881     0.35800
H1098       H  0.30190991  0.52549391  0.49761635     0.40900
H1099       H  0.35182900  0.56273361  0.31418434     0.40500
H1100       H  0.36486173  0.60213164  0.33099267     0.35400
C1101       C  0.17870108  0.55822660  0.59266292    -0.26400
C1102       C  0.17967425  0.53457017  0.61862190    -0.14400
C1103       C  0.20988861  0.53266707  0.62449036     0.36200
C1104       C  0.23843083  0.55366790  0.60348275    -0.25800
C1105       C  0.23761897  0.57732322  0.57725826    -0.15000
C1106       C  0.20736210  0.57963109  0.57198885     0.37300
N1107       N  0.20581476  0.60435213  0.54692622    -0.89300
H1108       H  0.15558047  0.56031425  0.58881077     0.18400
H1109       H  0.26148888  0.55169299  0.60822230     0.18400
N1110       N  0.21198818  0.51042582  0.65295810    -0.88300
H1111       H  0.19765833  0.61934368  0.56413322     0.35800
H1112       H  0.18802775  0.59228193  0.52532765     0.40900
H1113       H  0.22100386  0.49490022  0.63839524     0.40500
H1114       H  0.22941530  0.52454474  0.67407435     0.35400
C1115       C  0.42478819  0.77804103  0.39195580    -0.26400
C1116       C  0.42739330  0.77562746  0.43299006    -0.14400
C1117       C  0.45108381  0.80304100  0.45408499     0.36200
C1118       C  0.46864799  0.83309051  0.43443627    -0.25800
C1119       C  0.46527147  0.83578484  0.39362573    -0.15000
C1120       C  0.44388998  0.80762230  0.37195134     0.37300
N1121       N  0.44068158  0.80964494  0.32996989    -0.89300
H1122       H  0.40648004  0.75714849  0.37578059     0.18400
H1123       H  0.48419096  0.85472446  0.45165575     0.18400
N1124       N  0.45790631  0.80156152  0.49514045    -0.88300
H1125       H  0.42357924  0.78685796  0.31848000     0.35800
H1126       H  0.46370977  0.81432514  0.31663746     0.40900
H1127       H  0.44279120  0.77844465  0.50709248     0.40500
H1128       H  0.45311295  0.81962082  0.51072583     0.35400
C1129       C  0.19378428  0.66662049  0.37995487    -0.26400
C1130       C  0.16855871  0.63420003  0.38402509    -0.14400
C1131       C  0.17374800  0.61188487  0.40887237     0.36200
C1132       C  0.20380589  0.62253181  0.42913517    -0.25800
C1133       C  0.22875062  0.65511356  0.42569995    -0.15000
C1134       C  0.22377648  0.67736404  0.40055407     0.37300
N1135       N  0.24944561  0.71044924  0.39517637    -0.89300
H1136       H  0.19020245  0.68350955  0.36018393     0.18400
H1137       H  0.20759978  0.60531827  0.44818166     0.18400
N1138       N  0.14847854  0.57848605  0.41356775    -0.88300
H1139       H  0.24160157  0.72374221  0.37620840     0.35800
H1140       H  0.26968950  0.70840373  0.38103521     0.40900
H1141       H  0.12775732  0.57972065  0.42736657     0.40500
H1142       H  0.15641290  0.56522477  0.43246756     0.35400
C1143       C  0.38558979  0.79624358  0.56054927    -0.26400
C1144       C  0.35447286  0.76927806  0.56496068    -0.14400
C1145       C  0.33156480  0.77151494  0.59347054     0.36200
C1146       C  0.34097608  0.80062317  0.61716713    -0.25800
C1147       C  0.37244648  0.82771079  0.61242187    -0.15000
C1148       C  0.39464869  0.82534899  0.58307151     0.37300
N1149       N  0.42576997  0.85279633  0.57361205    -0.89300
H1150       H  0.40251414  0.79510159  0.53781031     0.18400
H1151       H  0.32361140  0.80213980  0.63934296     0.18400
N1152       N  0.29923890  0.74471614  0.59995358    -0.88300
H1153       H  0.44164834  0.85842975  0.59761069     0.35800
H1154       H  0.42135239  0.87340410  0.56750288     0.40900
H1155       H  0.29583012  0.72400043  0.58225014     0.40500
H1156       H  0.28156727  0.75282602  0.59151930     0.35400
C1157       C  0.19450508  0.54178201  0.88574489    -0.26400
C1158       C  0.16356624  0.53903094  0.90030459    -0.14400
C1159       C  0.16187826  0.55475146  0.93628777     0.36200
C1160       C  0.19124165  0.57496172  0.95576513    -0.25800
C1161       C  0.22238067  0.57948559  0.94005321    -0.15000
C1162       C  0.22409526  0.56184432  0.90552468     0.37300
N1163       N  0.25584917  0.56603968  0.88944589    -0.89300
H1164       H  0.19559231  0.52918881  0.85825464     0.18400
H1165       H  0.18981970  0.58832422  0.98246347     0.18400
N1166       N  0.13035123  0.55055180  0.95275598    -0.88300
H1167       H  0.25275472  0.55186400  0.86343154     0.35800
H1168       H  0.26655931  0.55646967  0.90986825     0.40900
H1169       H  0.12791273  0.54060767  0.98100831     0.40500
H1170       H  0.13050861  0.57400343  0.95589895     0.35400
C1171       C  0.20099828  0.64171898  0.04701847    -0.26400
C1172       C  0.23186522  0.65048286  0.06478076    -0.14400
C1173       C  0.23304200  0.64810559  0.10639637     0.36200
C1174       C  0.20335192  0.63790544  0.12902733    -0.25800
C1175       C  0.17252058  0.62928629  0.11099519    -0.15000
C1176       C  0.17141185  0.63020800  0.06950666     0.37300
N1177       N  0.14012258  0.61805638  0.04996715    -0.89300
H1178       H  0.19965246  0.64238795  0.01506932     0.18400
H1179       H  0.20433494  0.63673513  0.16095224     0.18400
N1180       N  0.26366325  0.65657541  0.12671392    -0.88300
H1181       H  0.13827699  0.59829467  0.03128205     0.35800
H1182       H  0.14022838  0.63698580  0.03225974     0.40900
H1183       H  0.28413315  0.66531697  0.10728014     0.40500
H1184       H  0.26250978  0.63484765  0.13909783     0.35400
C1185       C  0.46346945  0.64667129  0.92856194    -0.26400
C1186       C  0.45654577  0.64577751  0.88831372    -0.14400
C1187       C  0.43339753  0.65732534  0.87611669     0.36200
C1188       C  0.41734412  0.66924357  0.90480773    -0.25800
C1189       C  0.42442086  0.67029314  0.94541350    -0.15000
C1190       C  0.44830948  0.65921944  0.95696102     0.37300
N1191       N  0.45728753  0.66027692  0.99757779    -0.89300
H1192       H  0.48109183  0.63766951  0.93813261     0.18400
H1193       H  0.39903625  0.67741159  0.89539343     0.18400
N1194       N  0.42633633  0.65689354  0.83478183    -0.88300
H1195       H  0.48294099  0.67477065  0.99964042     0.35800
H1196       H  0.45212227  0.63612141  0.00602239     0.40900
H1197       H  0.44819322  0.67319411  0.82046266     0.40500
H1198       H  0.40866134  0.66610349  0.83072145     0.35400
C1199       C  0.34931397  0.55196340  0.12727595    -0.26400
C1200       C  0.36569391  0.53523706  0.10702220    -0.14400
C1201       C  0.36741351  0.53569904  0.06538140     0.36200
C1202       C  0.35311920  0.55297334  0.04471056    -0.25800
C1203       C  0.33739451  0.57043471  0.06474062    -0.15000
C1204       C  0.33509981  0.56958304  0.10670811     0.37300
N1205       N  0.32057511  0.58785686  0.12952262    -0.89300
H1206       H  0.34809408  0.05172418  0.15958722     0.18400
H1207       H  0.35631130  0.55462515  0.01276417     0.18400
N1208       N  0.38510351  0.51995332  0.04403518    -0.88300
H1209       H  0.30024690  0.57063011  0.14538201     0.35800
H1210       H  0.31110545  0.60028150  0.11150921     0.40900
H1211       H  0.36882970  0.50301314  0.02377359     0.40500
H1212       H  0.40446484  0.53812730  0.02790260     0.35400
C1213       C  0.44980538  0.82323266  0.09435837    -0.26400
C1214       C  0.46963960  0.82023692  0.12416144    -0.14400
C1215       C  0.46803404  0.78893337  0.13245670     0.36200
C1216       C  0.44676079  0.76106115  0.11069993    -0.25800
C1217       C  0.42628397  0.76367073  0.08112912    -0.15000
C1218       C  0.42778818  0.79526925  0.07304269     0.37300
N1219       N  0.40622855  0.79880969  0.04445795    -0.89300
H1220       H  0.45083931  0.84745970  0.08859030     0.18400
H1221       H  0.44599442  0.73712701  0.11751849     0.18400
N1222       N  0.98709110  0.78518137  0.16384479    -0.88300
H1223       H  0.41093791  0.82376170  0.04176275     0.35800
H1224       H  0.38184653  0.78654923  0.05546703     0.40900
H1225       H  0.97054747  0.76873854  0.18434554     0.40500
H1226       H  0.00201150  0.77427456  0.15191412     0.35400
C1227       C  0.35940661  0.77657844  0.89017186    -0.26400
C1228       C  0.35059212  0.77674571  0.93023913    -0.14400
C1229       C  0.35159343  0.80618099  0.94820842     0.36200
C1230       C  0.36053466  0.83450538  0.92504612    -0.25800
C1231       C  0.36816855  0.83393794  0.88446527    -0.15000
C1232       C  0.36796653  0.80476214  0.86712126     0.37300
N1233       N  0.37535988  0.80334501  0.82575086    -0.89300
H1234       H  0.35886880  0.75411189  0.87641118     0.18400
H1235       H  0.36156474  0.85714151  0.93882645     0.18400
N1236       N  0.34490321  0.80865222  0.98976255    -0.88300
H1237       H  0.35478581  0.78424659  0.81259742     0.35800
H1238       H  0.39550552  0.79720726  0.82290283     0.40900
H1239       H  0.33977104  0.78660654  0.00438705     0.40500
H1240       H  0.32356221  0.81284065  0.99245498     0.35400
O1241       O  0.86127794  0.11862449  0.02978892    -0.80900
O1242       O  0.86193529  0.23445553  0.95794794    -0.65600
O1243       O  0.84251905  0.16841651  0.03438430    -1.12200
C1244       C  0.75160357  0.10712143  0.95530907     1.06000
O1245       O  0.81000548  0.22938719  0.96263664    -0.78800
O1246       O  0.76799317  0.18130262  0.01338385    -0.66400
Ni1247     Ni  0.87811324  0.16136858  0.05418603     1.34900
C1248       C  0.76058811  0.15755739  0.03735459     0.84700
O1249       O  0.89134510  0.23376809  0.02654096    -0.79400
O1250       O  0.89593459  0.20465455  0.07753357    -0.89600
C1251       C  0.84040509  0.24514937  0.95155214     0.84300
O1252       O  0.90976613  0.17726335  0.01172954    -0.67800
O1253       O  0.75118464  0.13555437  0.95303962    -0.87100
C1254       C  0.90429426  0.17878094  0.97551350     0.85100
C1255       C  0.90290920  0.23212019  0.06044574     1.06700
H1256       H  0.82411525  0.16488111  0.94339764     0.38500
O1257       O  0.81686223  0.16993637  0.96893394    -1.09800
O1258       O  0.77415780  0.13751324  0.03571978    -0.66400
Ni1259     Ni  0.80931044  0.13412058  0.00336611     1.26300
O1260       O  0.88138038  0.18645330  0.96494573    -0.66700
O1261       O  0.77532990  0.10247390  0.97041680    -0.79000
C1262       C  0.83422669  0.09645685  0.04278934     0.84500
O1263       O  0.80715283  0.09907792  0.03772393    -0.66100
Ni1264     Ni  0.78181910  0.18177497  0.95933877     1.27400
Ni1265     Ni  0.85391001  0.20199506  0.99668154     1.26100
H1266       H  0.83186927  0.17416939  0.05666756     0.39000
O1267       O  0.77627459  0.19457538  0.45998365    -0.80900
O1268       O  0.90364137  0.19272851  0.53791127    -0.65600
O1269       O  0.83456008  0.18549605  0.46738719    -1.12200
C1270       C  0.76893605  0.09926023  0.55682365     1.06000
O1271       O  0.88282101  0.13888138  0.52806028    -0.78800
O1272       O  0.82471436  0.09142322  0.50878929    -0.66400
Ni1273     Ni  0.82413546  0.22142245  0.45765226     1.34900
C1274       C  0.82187385  0.09662449  0.47280769     0.84700
O1275       O  0.90257145  0.22552772  0.47031886    -0.79400
O1276       O  0.87081510  0.25062307  0.45112306    -0.89600
C1277       C  0.90570269  0.16526922  0.54129244     0.84300
O1278       O  0.82409038  0.23518877  0.51200691    -0.67800
O1279       O  0.79601486  0.10457660  0.57399126    -0.87100
C1280       C  0.84700510  0.24120257  0.53684684     0.85100
C1281       C  0.89872140  0.24894789  0.45322185     1.06700
H1282       H  0.82839116  0.16935218  0.55508594     0.38500
O1283       O  0.83406339  0.15880706  0.53270562    -1.09800
O1284       O  0.81515596  0.12027091  0.46270267    -0.66400
Ni1285     Ni  0.80111414  0.14891439  0.49440106     1.26300
O1286       O  0.86663571  0.22713534  0.53495267    -0.66700
O1287       O  0.76799209  0.11209950  0.52358460    -0.79000
C1288       C  0.75997774  0.16466730  0.44766196     0.84500
O1289       O  0.76936871  0.14233492  0.45509877    -0.66100
Ni1290     Ni  0.83984035  0.12234568  0.55182385     1.27400
Ni1291     Ni  0.86958386  0.19186200  0.50269030     1.26100
H1292       H  0.83976643  0.17814295  0.44197263     0.39000
O1293       O  0.93339479  0.03877212  0.70662804    -0.74500
O1294       O  0.89028850  0.46966943  0.78704920    -0.74500
O1295       O  0.92579899  0.04327970  0.78542573    -0.74500
O1296       O  0.89769087  0.46871734  0.70831760    -0.74600
O1297       O  0.94334311  0.46539325  0.72374990    -0.74500
O1298       O  0.97045857  0.03606752  0.79705486    -0.74500
O1299       O  0.93981162  0.47545505  0.80288143    -0.74500
O1300       O  0.97858930  0.03199125  0.71683802    -0.74500
Ni1301     Ni  0.90945446  0.00537454  0.74686277     1.25400
Ni1302     Ni  0.95942411  0.00202115  0.75959329     1.25400
C1303       C  0.96465343  0.04741660  0.69944487     0.87700
C1304       C  0.90928769  0.45819237  0.80306631     0.87700
C1305       C  0.95557420  0.05430707  0.79932736     0.87700
C1306       C  0.91645237  0.45342225  0.70478026     0.87900
O1307       O  0.60852280  0.06751844  0.71431663    -0.74500
O1308       O  0.56623124  0.10827557  0.78896066    -0.74500
O1309       O  0.60276739  0.07006657  0.79466162    -0.74500
O1310       O  0.57045862  0.10417526  0.70883258    -0.74600
O1311       O  0.53538984  0.05196994  0.69837189    -0.74500
O1312       O  0.55027450  0.03487906  0.80343931    -0.74500
O1313       O  0.52018623  0.06794826  0.76903626    -0.74500
O1314       O  0.56786469  0.02112174  0.73270994    -0.74500
Ni1315     Ni  0.58987238  0.09034913  0.75175696     1.25400
Ni1316     Ni  0.54162223  0.04215581  0.75085966     1.25400
C1317       C  0.59419467  0.03539189  0.71285368     0.87700
C1318       C  0.53403906  0.09401021  0.78931877     0.87700
C1319       C  0.58057649  0.04372058  0.81100829     0.87700
C1320       C  0.54426310  0.08241354  0.69182763     0.87900
O1321       O  0.53874476  0.43377347  0.79424715    -0.74500
O1322       O  0.97003766  0.39167967  0.71312907    -0.74500
O1323       O  0.54405654  0.42767746  0.71501376    -0.74500
O1324       O  0.96838375  0.39829156  0.79198178    -0.74600
O1325       O  0.96529056  0.44424499  0.77765840    -0.74500
O1326       O  0.53637065  0.47210454  0.70408280    -0.74500
O1327       O  0.97551177  0.44122520  0.69837599    -0.74500
O1328       O  0.53201896  0.47896034  0.78451515    -0.74500
Ni1329     Ni  0.50562916  0.41052394  0.75329019     1.25400
Ni1330     Ni  0.50218718  0.46048939  0.74148489     1.25400
C1331       C  0.54724475  0.46485777  0.80200959     0.87700
C1332       C  0.95846951  0.41068602  0.69733062     0.87700
C1333       C  0.55484916  0.45752515  0.70137023     0.87700
C1334       C  0.95301425  0.41700093  0.79584124     0.87900
C1335       C  0.98478654  0.12046374  0.63042115     0.02300
C1336       C  0.51968594  0.13633521  0.62911934     0.02200
C1337       C  0.53760986  0.12206132  0.64822173    -0.18300
C1338       C  0.52170540  0.09247648  0.66948343     0.02300
C1339       C  0.98541135  0.07641633  0.67246076     0.02200
C1340       C  0.96805188  0.09092146  0.65159542    -0.18300
H1341       H  0.94108317  0.07959966  0.65237136     0.04300
H1342       H  0.56458296  0.13458489  0.64686414     0.04300
C1343       C  0.63269638  0.47918907  0.63714142     0.02300
C1344       C  0.64893219  0.01361013  0.64090958     0.02200
C1345       C  0.63619539  0.03034001  0.66692094    -0.18300
C1346       C  0.60634037  0.01370755  0.68804223     0.02300
C1347       C  0.58901639  0.47781388  0.68386947     0.02200
C1348       C  0.60327310  0.46141835  0.65908006    -0.18300
H1349       H  0.59024852  0.43472739  0.65479881     0.04300
H1350       H  0.64959492  0.05712066  0.66987855     0.04300
C1351       C  0.87735276  0.36425922  0.86126054     0.02300
C1352       C  0.85562964  0.37994381  0.85838390     0.02200
C1353       C  0.86668117  0.40941747  0.83673410    -0.18300
C1354       C  0.89850886  0.42427775  0.81943956     0.02300
C1355       C  0.92001456  0.40702330  0.81952508     0.02200
C1356       C  0.90854313  0.37762510  0.84129948    -0.18300
H1357       H  0.92451304  0.36503172  0.84346190     0.04300
H1358       H  0.85062292  0.42192913  0.83460153     0.04300
C1359       C  0.88246523  0.35893389  0.63726761     0.02300
C1360       C  0.86535054  0.37937234  0.63642813     0.02200
C1361       C  0.87767304  0.40966967  0.65812654    -0.18300
C1362       C  0.90701174  0.42099544  0.68028079     0.02300
C1363       C  0.92478344  0.39991418  0.67987761     0.02200
C1364       C  0.91094865  0.36893875  0.66045691    -0.18300
H1365       H  0.92357072  0.35293235  0.66177283     0.04300
H1366       H  0.86421581  0.42491720  0.65720852     0.04300
C1367       C  0.63269076  0.01979058  0.87722992     0.02300
C1368       C  0.61931274  0.48543894  0.87379703     0.02200
C1369       C  0.59071168  0.46835299  0.85078753    -0.18300
C1370       C  0.57561827  0.48537538  0.83002762     0.02300
C1371       C  0.59010002  0.02120762  0.83421557     0.02200
C1372       C  0.61816816  0.03730530  0.85785872    -0.18300
H1373       H  0.62961032  0.06421249  0.86046492     0.04300
H1374       H  0.58063191  0.44152535  0.84852352     0.04300
C1375       C  0.97517484  0.13358474  0.85942668     0.02300
C1376       C  0.51028474  0.14978617  0.85683688     0.02200
C1377       C  0.52779112  0.13654687  0.83285198    -0.18300
C1378       C  0.51174611  0.10621392  0.81275839     0.02300
C1379       C  0.97535921  0.08865659  0.81628575     0.02200
C1380       C  0.95809369  0.10354707  0.83854704    -0.18300
H1381       H  0.93126781  0.09056210  0.84190243     0.04300
H1382       H  0.55467416  0.14991063  0.83082417     0.04300
O1383       O  0.61868144  0.36113986  0.47301149    -0.80900
O1384       O  0.73354809  0.36321773  0.54248699    -0.65600
O1385       O  0.66765211  0.34332358  0.46558709    -1.12200
C1386       C  0.60556923  0.25506867  0.54959740     1.06000
O1387       O  0.72780540  0.31125126  0.53775274    -0.78800
O1388       O  0.67767864  0.26590797  0.49207452    -0.66400
Ni1389     Ni  0.66021455  0.37868747  0.44643534     1.34900
C1390       C  0.65576569  0.26013764  0.46589568     0.84700
O1391       O  0.73243962  0.39210439  0.47334606    -0.79400
O1392       O  0.70323098  0.39711294  0.42243499    -0.89600
C1393       C  0.74397888  0.34147762  0.54897615     0.84300
O1394       O  0.67596300  0.41090173  0.48813647    -0.67800
O1395       O  0.63400445  0.25510613  0.55445547    -0.87100
C1396       C  0.67758815  0.40546228  0.52434295     0.85100
C1397       C  0.73065013  0.40389902  0.43964091     1.06700
H1398       H  0.66304229  0.32614591  0.55645082     0.38500
O1399       O  0.66851793  0.31837448  0.53153262    -1.09800
O1400       O  0.63691775  0.27504117  0.46521734    -0.66400
Ni1401     Ni  0.63288459  0.31017862  0.49647713     1.26300
O1402       O  0.68545460  0.38269704  0.53475118    -0.66700
O1403       O  0.60079876  0.27659959  0.52955440    -0.79000
C1404       C  0.59565926  0.33538112  0.45917000     0.84500
O1405       O  0.59784114  0.30788432  0.46154326    -0.66100
Ni1406     Ni  0.68021974  0.28404052  0.54443693     1.27400
Ni1407     Ni  0.70093840  0.35498988  0.50354114     1.26100
H1408       H  0.67357770  0.33285112  0.44337285     0.39000
O1409       O  0.68755110  0.26937539  0.02856545    -0.80900
O1410       O  0.69187118  0.40296721  0.96514692    -0.65600
O1411       O  0.68271237  0.32964414  0.02912151    -1.12200
C1412       C  0.59331921  0.27098484  0.94029874     1.06000
O1413       O  0.63781613  0.38412588  0.97396886    -0.78800
O1414       O  0.58901352  0.32536552  0.99136279    -0.66400
Ni1415     Ni  0.71749351  0.31629764  0.03312459     1.34900
C1416       C  0.59495955  0.32247741  0.02709161     0.84700
O1417       O  0.72592365  0.39664064  0.02951838    -0.79400
O1418       O  0.74963592  0.36192990  0.04099867    -0.89600
C1419       C  0.66508120  0.40639552  0.96150787     0.84300
O1420       O  0.72864183  0.31814998  0.97750066    -0.67800
O1421       O  0.60060514  0.29877089  0.92388939    -0.87100
C1422       C  0.73572069  0.34328161  0.95580473     0.85100
C1423       C  0.75007122  0.39087452  0.04162282     1.06700
H1424       H  0.66506500  0.32799254  0.94295991     0.38500
O1425       O  0.65517533  0.33356411  0.96615282    -1.09800
O1426       O  0.61803283  0.31450239  0.03624270    -0.66400
Ni1427     Ni  0.64421796  0.29893593  0.00227277     1.26300
O1428       O  0.72275592  0.36343508  0.96176832    -0.66700
O1429       O  0.60558808  0.26855422  0.97338382    -0.79000
C1430       C  0.65875909  0.25511660  0.04497227     0.84500
O1431       O  0.63678299  0.26553496  0.03973747    -0.66100
Ni1432     Ni  0.61975190  0.34177182  0.94828867     1.27400
Ni1433     Ni  0.68978432  0.36663243  0.99717093     1.26100
H1434       H  0.67671602  0.33395071  0.05564769     0.39000
O1435       O  0.96803406  0.02294316  0.21773142    -0.74500
O1436       O  0.52574945  0.06048348  0.30258340    -0.74500
O1437       O  0.96472472  0.03080403  0.29816809    -0.74500
O1438       O  0.53494099  0.05683240  0.22291708    -0.74600
O1439       O  0.53307341  0.10364572  0.20995452    -0.74500
O1440       O  0.95686661  0.07484734  0.28549133    -0.74500
O1441       O  0.53051642  0.11006598  0.28881352    -0.74500
O1442       O  0.96262324  0.06860892  0.20672150    -0.74500
Ni1443     Ni  0.99845756  0.04138480  0.26004985     1.25400
Ni1444     Ni  0.99553570  0.09161867  0.24801235     1.25400
C1445       C  0.95325351  0.03725267  0.19988474     0.87700
C1446       C  0.54222910  0.09108333  0.30436978     0.87700
C1447       C  0.94605845  0.04523024  0.29962312     0.87700
C1448       C  0.54781430  0.08442970  0.20536076     0.87900
O1449       O  0.93230092  0.39917594  0.29401031    -0.74500
O1450       O  0.89801185  0.43138168  0.20792775    -0.74500
O1451       O  0.93506241  0.39344000  0.21407370    -0.74500
O1452       O  0.89324021  0.43482845  0.28804290    -0.74600
O1453       O  0.93371697  0.48117055  0.26909386    -0.74500
O1454       O  0.98129208  0.43460781  0.23194440    -0.74500
O1455       O  0.95016716  0.46692370  0.19792076    -0.74500
O1456       O  0.96750100  0.45158451  0.30278283    -0.74500
Ni1457     Ni  0.91186237  0.41188504  0.25101905     1.25400
Ni1458     Ni  0.95995515  0.46038645  0.25038276     1.25400
C1459       C  0.95876882  0.42132133  0.31020196     0.87700
C1460       C  0.91967706  0.45786641  0.19120213     0.87700
C1461       C  0.96721680  0.40780908  0.21302210     0.87700
C1462       C  0.90729334  0.46693030  0.28876879     0.87900
C1463       C  0.84919508  0.48929684  0.35393840     0.02300
C1464       C  0.86511276  0.02442151  0.35686334     0.02200
C1465       C  0.89582455  0.04184390  0.33728243    -0.18300
C1466       C  0.91145708  0.02506412  0.31560775     0.02300
C1467       C  0.89426702  0.48867831  0.31177392     0.02200
C1468       C  0.86331750  0.47228257  0.33049424    -0.18300
H1469       H  0.85016480  0.44544833  0.32791611     0.04300
H1470       H  0.90863439  0.06859387  0.34110002     0.04300
O1471       O  0.52400973  0.47057108  0.28370314    -0.74500
O1472       O  0.56061900  0.02581466  0.19712162    -0.74500
O1473       O  0.53115763  0.46504224  0.20367362    -0.74500
O1474       O  0.55827717  0.03709770  0.27608267    -0.74600
O1475       O  0.60471539  0.03491295  0.29026825    -0.74500
O1476       O  0.57578406  0.45794181  0.21546498    -0.74500
O1477       O  0.61058332  0.03180964  0.21145384    -0.74500
O1478       O  0.56963466  0.46461935  0.29398146    -0.74500
Ni1479     Ni  0.54226311  0.49971088  0.24034540     1.25400
Ni1480     Ni  0.59264496  0.49699628  0.25246998     1.25400
C1481       C  0.53835795  0.45574381  0.30132179     0.87700
C1482       C  0.59111533  0.04284417  0.19569605     0.87700
C1483       C  0.54581184  0.44660737  0.20208886     0.87700
C1484       C  0.58561781  0.04983667  0.29413020     0.87900
C1485       C  0.86613240  0.48144415  0.12614939     0.02300
C1486       C  0.87997366  0.01625237  0.12970885     0.02200
C1487       C  0.90872632  0.03336870  0.15252709    -0.18300
C1488       C  0.92424814  0.01651159  0.17282009     0.02300
C1489       C  0.90942019  0.48035540  0.16866211     0.02200
C1490       C  0.88110338  0.46418283  0.14542988    -0.18300
H1491       H  0.87002790  0.43729327  0.14266606     0.04300
H1492       H  0.91899692  0.06022701  0.15446130     0.04300
C1493       C  0.63706755  0.12424925  0.36159629     0.02300
C1494       C  0.61802646  0.14286958  0.36462313     0.02200
C1495       C  0.58825143  0.13196473  0.34385968    -0.18300
C1496       C  0.57580121  0.10210902  0.32185365     0.02300
C1497       C  0.59503452  0.08241465  0.31846946     0.02200
C1498       C  0.62568342  0.09504623  0.33798329    -0.18300
H1499       H  0.64107449  0.08174150  0.33516613     0.04300
H1500       H  0.57362326  0.14609663  0.34665062     0.04300
C1501       C  0.64135067  0.11829573  0.13531535     0.02300
C1502       C  0.62090961  0.13542373  0.13585015     0.02200
C1503       C  0.59178710  0.12397970  0.15968782    -0.18300
C1504       C  0.58039431  0.09416577  0.18072990     0.02300
C1505       C  0.60129371  0.07612204  0.17834872     0.02200
C1506       C  0.63152144  0.08932534  0.15714767    -0.18300
H1507       H  0.64679629  0.07581092  0.15570247     0.04300
H1508       H  0.57735322  0.13832957  0.16082114     0.04300
C1509       C  0.51850792  0.38236912  0.36922638     0.02300
C1510       C  0.98363297  0.36772053  0.37271343     0.02200
C1511       C  0.96581322  0.38286866  0.35516715    -0.18300
C1512       C  0.98162348  0.41174220  0.33276775     0.02300
C1513       C  0.51785562  0.42702649  0.32853280     0.02200
C1514       C  0.53522327  0.41187279  0.34808534    -0.18300
H1515       H  0.56215906  0.42257202  0.34617463     0.04300
H1516       H  0.93887840  0.37122215  0.35802915     0.04300
C1517       C  0.52443259  0.36603353  0.14413639     0.02300
C1518       C  0.98946185  0.34986637  0.14762770     0.02200
C1519       C  0.97250783  0.36385321  0.17131292    -0.18300
C1520       C  0.98910167  0.39467948  0.19038474     0.02300
C1521       C  0.52550579  0.41183580  0.18641621     0.02200
C1522       C  0.54215288  0.39626268  0.16434865    -0.18300
H1523       H  0.56893211  0.40899661  0.16020531     0.04300
H1524       H  0.94560078  0.35090204  0.17345710     0.04300
C1525       C  0.66096109  0.19282281  0.11855403    -0.26400
C1526       C  0.62993170  0.16593430  0.11228982    -0.14400
C1527       C  0.60843072  0.16874166  0.08381066     0.36200
C1528       C  0.61853582  0.19840892  0.06307432    -0.25800
C1529       C  0.64992071  0.22496908  0.06863870    -0.15000
C1530       C  0.67129755  0.22229749  0.09738556     0.37300
N1531       N  0.70300140  0.24896262  0.10710288    -0.89300
H1532       H  0.67726310  0.19109229  0.14075237     0.18400
H1533       H  0.60196662  0.20030995  0.04134094     0.18400
N1534       N  0.57677180  0.14198347  0.07412867    -0.88300
H1535       H  0.70235972  0.25433984  0.13734902     0.35800
H1536       H  0.70715408  0.27092037  0.09302359     0.40900
H1537       H  0.57305414  0.11997474  0.08784571     0.40500
H1538       H  0.57723695  0.13689450  0.04378106     0.35400
C1539       C  0.55779103  0.34891655  0.04629423    -0.26400
C1540       C  0.57525383  0.33083891  0.05800428    -0.14400
C1541       C  0.57531705  0.32380027  0.09857889     0.36200
C1542       C  0.55903562  0.33611560  0.12637290    -0.25800
C1543       C  0.54216729  0.35453259  0.11428844    -0.15000
C1544       C  0.54157490  0.36102983  0.07367023     0.37300
N1545       N  0.52508493  0.37998506  0.05895432    -0.89300
H1546       H  0.55745346  0.35478780  0.01541763     0.18400
H1547       H  0.55910273  0.33101445  0.15756010     0.18400
N1548       N  0.59162877  0.30416895  0.11143078    -0.88300
H1549       H  0.54316773  0.40107470  0.04539157     0.35800
H1550       H  0.51441744  0.38870671  0.08161929     0.40900
H1551       H  0.57898006  0.28031492  0.09920486     0.40500
H1552       H  0.58946306  0.30153889  0.14219100     0.35400
C1553       C  0.77682024  0.43784788  0.08944404    -0.26400
C1554       C  0.78040339  0.41826321  0.05805329    -0.14400
C1555       C  0.81295251  0.42181003  0.04744118     0.36200
C1556       C  0.84026368  0.44359404  0.06919412    -0.25800
C1557       C  0.83644662  0.46185958  0.10163516    -0.15000
C1558       C  0.80444492  0.45914691  0.11166522     0.31500
N1559       N  0.79961135  0.47645249  0.14572365    -0.89300
H1560       H  0.75219287  0.43498880  0.09845836     0.18400
H1561       H  0.86486184  0.44577159  0.06115332     0.18400
N1562       N  0.81960039  0.40394561  0.01493421    -0.88300
H1563       H  0.78328624  0.45884133  0.16532883     0.35800
H1564       H  0.78808026  0.49109982  0.13656523     0.40900
H1565       H  0.79813576  0.38885959  0.99993234     0.40500
H1566       H  0.82904092  0.38828953  0.02654379     0.35400
C1567       C  0.63375535  0.20361906  0.37390316    -0.26400
C1568       C  0.62771535  0.17300441  0.39086473    -0.14400
C1569       C  0.63135491  0.17185769  0.43228111     0.36200
C1570       C  0.64366345  0.20145259  0.45463341    -0.25800
C1571       C  0.64932329  0.23197641  0.43791228    -0.15000
C1572       C  0.64412381  0.23304403  0.39685975     0.37300
N1573       N  0.64933960  0.26325013  0.37736662    -0.89300
H1574       H  0.63055792  0.20469740  0.34235321     0.18400
H1575       H  0.64636119  0.20011135  0.48627809     0.18400
N1576       N  0.62146525  0.14116164  0.45298373    -0.88300
H1577       H  0.66750226  0.26742067  0.35521967     0.35800
H1578       H  0.65918784  0.28376037  0.39650229     0.40900
H1579       H  0.60866642  0.12081041  0.43443710     0.40500
H1580       H  0.60398702  0.14023126  0.47482571     0.35400
C1581       C  0.56058723  0.32845926  0.40017389    -0.26400
C1582       C  0.56944387  0.34058177  0.43900477    -0.14400
C1583       C  0.56043307  0.36561304  0.45425748     0.36200
C1584       C  0.54625561  0.38019294  0.42967659    -0.25800
C1585       C  0.53782980  0.36862171  0.39102066    -0.15000
C1586       C  0.54417600  0.34200968  0.37610303     0.37300
N1587       N  0.03431243  0.32930292  0.33669455    -0.89300
H1588       H  0.56790137  0.30979726  0.38806387     0.18400
H1589       H  0.54030524  0.39988977  0.44148076     0.18400
N1590       N  0.56497985  0.37655612  0.49492485    -0.88300
H1591       H  0.04080344  0.30977098  0.33021637     0.35800
H1592       H  0.04784142  0.34828125  0.31693266     0.40900
H1593       H  0.59018240  0.39028336  0.50080150     0.40500
H1594       H  0.55502743  0.35573645  0.51303246     0.35400
C1595       C  0.82016317  0.44575655  0.40318689    -0.26400
C1596       C  0.81872542  0.46891701  0.37688125    -0.14400
C1597       C  0.78872360  0.47175676  0.37245188     0.36200
C1598       C  0.76045166  0.45078436  0.39410835    -0.25800
C1599       C  0.76159259  0.42680596  0.41957297    -0.15000
C1600       C  0.79190910  0.42450124  0.42444373     0.37300
N1601       N  0.79378497  0.40010002  0.45003850    -0.89300
H1602       H  0.84349239  0.44401269  0.40667825     0.18400
H1603       H  0.73731312  0.45292144  0.39074819     0.18400
N1604       N  0.78686408  0.99556507  0.34538123    -0.88300
H1605       H  0.81808852  0.40221735  0.45071863     0.35800
H1606       H  0.77917795  0.37667058  0.43778934     0.40900
H1607       H  0.79117620  0.98882441  0.31665937     0.40500
H1608       H  0.76300121  0.99467140  0.34593191     0.35400
C1609       C  0.52624607  0.20937391  0.87323199    -0.26400
C1610       C  0.52988636  0.18031070  0.88006717    -0.14400
C1611       C  0.55281729  0.18056551  0.90820122     0.36200
C1612       C  0.57272532  0.21038120  0.92780811    -0.25800
C1613       C  0.57019094  0.24001303  0.92000463    -0.15000
C1614       C  0.54594017  0.23911592  0.89287030     0.37300
N1615       N  0.54006705  0.26757217  0.88515264    -0.89300
H1616       H  0.50828466  0.20903902  0.85197714     0.18400
H1617       H  0.59080492  0.21053782  0.94875797     0.18400
N1618       N  0.55599990  0.15056560  0.91638793    -0.88300
H1619       H  0.56111854  0.28560740  0.87133109     0.35800
H1620       H  0.53530067  0.27698091  0.91206065     0.40900
H1621       H  0.53341308  0.13366773  0.92864815     0.40500
H1622       H  0.57403965  0.15499840  0.93777573     0.35400
C1623       C  0.66828862  0.43645089  0.89986738    -0.26400
C1624       C  0.66311841  0.43414233  0.94105290    -0.14400
C1625       C  0.64548832  0.45035576  0.95980787     0.36200
C1626       C  0.63138547  0.46665100  0.93713764    -0.25800
C1627       C  0.63450690  0.46712694  0.89569439    -0.15000
C1628       C  0.65438666  0.45300434  0.87686591     0.37300
N1629       N  0.66025864  0.95423581  0.83544419    -0.89300
H1630       H  0.68118808  0.42336487  0.88515339     0.18400
H1631       H  0.61722380  0.47839648  0.95193339     0.18400
N1632       N  0.64041281  0.44869875  0.00193317    -0.88300
H1633       H  0.68583469  0.96805177  0.83073838     0.35800
H1634       H  0.64864793  0.96677674  0.82117551     0.40900
H1635       H  0.61478872  0.43747241  0.00786834     0.40500
H1636       H  0.64999904  0.47298734  0.01333231     0.35400
C1637       C  0.77614525  0.35956944  0.61009448    -0.26400
C1638       C  0.77561042  0.35153831  0.56967027    -0.14400
C1639       C  0.80480317  0.35258195  0.55071005     0.36200
C1640       C  0.83399662  0.36254970  0.57264293    -0.25800
C1641       C  0.83430421  0.36975987  0.61346095    -0.15000
C1642       C  0.80486948  0.36780638  0.63225737     0.37300
N1643       N  0.80376132  0.37310320  0.67418212    -0.89300
H1644       H  0.75374073  0.35837740  0.62488647     0.18400
H1645       H  0.85655229  0.36438166  0.55770809     0.18400
N1646       N  0.80602269  0.34431203  0.50943975    -0.88300
H1647       H  0.79679723  0.39249125  0.67925502     0.35800
H1648       H  0.78528553  0.35157041  0.68647537     0.40900
H1649       H  0.78335211  0.33812598  0.49573708     0.40500
H1650       H  0.81055171  0.32315969  0.50771475     0.35400
C1651       C  0.76899291  0.32752394  0.90485029    -0.26400
C1652       C  0.76306747  0.35218108  0.92568887    -0.14400
C1653       C  0.78615433  0.38582318  0.92131434     0.36200
C1654       C  0.81627111  0.39342954  0.90088049    -0.25800
C1655       C  0.82284627  0.36896702  0.88048684    -0.15000
C1656       C  0.79779746  0.33584877  0.88074656     0.37300
N1657       N  0.80096414  0.31075764  0.85607336    -0.89300
H1658       H  0.75103270  0.30176767  0.90689578     0.18400
H1659       H  0.83486389  0.41899318  0.90088330     0.18400
N1660       N  0.77992513  0.41224587  0.93942963    -0.88300
H1661       H  0.78094609  0.30161327  0.83672308     0.35800
H1662       H  0.79877576  0.29119516  0.87413613     0.40900
H1663       H  0.76067627  0.41386149  0.92391406     0.40500
H1664       H  0.80053381  0.43516462  0.93607698     0.35400
C1665       C  0.65628239  0.44774623  0.54064247    -0.26400
C1666       C  0.66828268  0.42540508  0.55435280    -0.14400
C1667       C  0.66819474  0.42084133  0.59575043     0.36200
C1668       C  0.65656311  0.43884477  0.62188994    -0.25800
C1669       C  0.64454513  0.46092073  0.60788589    -0.15000
C1670       C  0.64394927  0.46496845  0.56652368     0.37300
N1671       N  0.62956600  0.48489212  0.54940006    -0.89300
H1672       H  0.65521704  0.45114529  0.50914201     0.18400
H1673       H  0.65669931  0.43555164  0.65355385     0.18400
N1674       N  0.67957386  0.39791538  0.61134266    -0.88300
H1675       H  0.64865119  0.50472842  0.53502986     0.35800
H1676       H  0.61890384  0.49483782  0.57072716     0.40900
H1677       H  0.66190252  0.37394081  0.60423461     0.40500
H1678       H  0.68006649  0.39941353  0.64228274     0.35400
C1679       C  0.57562276  0.22725538  0.60997865    -0.26400
C1680       C  0.57737458  0.22769713  0.56848844    -0.14400
C1681       C  0.55811088  0.19857029  0.54674197     0.36200
C1682       C  0.53890312  0.16917679  0.56685846    -0.25800
C1683       C  0.53813548  0.16838091  0.60845578    -0.15000
C1684       C  0.55617289  0.19787758  0.63009419     0.37300
N1685       N  0.55577052  0.19776286  0.67250793    -0.89300
H1686       H  0.59093578  0.24936890  0.62684782     0.18400
H1687       H  0.52579945  0.14653580  0.54986228     0.18400
N1688       N  0.55910878  0.19779378  0.50430284    -0.88300
H1689       H  0.58020748  0.20537641  0.68183132     0.35800
H1690       H  0.54763564  0.21537422  0.68284270     0.40900
H1691       H  0.58362656  0.20433281  0.49476530     0.40500
H1692       H  0.55182789  0.21561021  0.49422959     0.35400
C1693       C  0.93951056  0.17165214  0.60094755    -0.26400
C1694       C  0.93269336  0.16142570  0.56124361    -0.14400
C1695       C  0.94386946  0.13859607  0.54463976     0.36200
C1696       C  0.95963028  0.12473442  0.56827568    -0.25800
C1697       C  0.96568817  0.13414165  0.60804769    -0.15000
C1698       C  0.95617677  0.15820023  0.62463006     0.37300
N1699       N  0.96209198  0.16759566  0.66570710    -0.89300
H1700       H  0.92992220  0.18828158  0.61409189     0.18400
H1701       H  0.46732061  0.10653794  0.55545699     0.18400
N1702       N  0.93789833  0.12840981  0.50387830    -0.88300
H1703       H  0.95300749  0.18505765  0.67345954     0.35800
H1704       H  0.98780428  0.17944261  0.66945152     0.40900
H1705       H  0.92372433  0.10265822  0.50275527     0.40500
H1706       H  0.96083734  0.13377762  0.48987665     0.35400
C1707       C  0.84774958  0.03320095  0.42470089    -0.26400
C1708       C  0.85230357  0.04267312  0.38495553    -0.14400
C1709       C  0.84405255  0.06849160  0.37328826     0.36200
C1710       C  0.83319881  0.08509899  0.40214738    -0.25800
C1711       C  0.82871503  0.07556499  0.44210351    -0.15000
C1712       C  0.83436437  0.04790240  0.45278646     0.37300
N1713       N  0.82640723  0.03457843  0.49202900    -0.89300
H1714       H  0.85411922  0.01356881  0.43381681     0.18400
H1715       H  0.82836429  0.10573433  0.39313441     0.18400
N1716       N  0.84533559  0.07789117  0.33264417    -0.88300
H1717       H  0.83230674  0.01443082  0.49485693     0.35800
H1718       H  0.80058317  0.02513342  0.49588555     0.40900
H1719       H  0.85099912  0.06236856  0.31329256     0.40500
H1720       H  0.86432822  0.10189717  0.32976857     0.35400
C1721       C  0.67866727  0.05814259  0.59229400    -0.26400
C1722       C  0.67932072  0.03399586  0.61770739    -0.14400
C1723       C  0.70932732  0.03147467  0.62296750     0.36200
C1724       C  0.73795801  0.05242915  0.60202530    -0.25800
C1725       C  0.73746767  0.07663848  0.57647811    -0.15000
C1726       C  0.70742539  0.07950408  0.57172813     0.37300
N1727       N  0.70622954  0.10479904  0.54738075    -0.89300
H1728       H  0.65573230  0.06067512  0.58882196     0.18400
H1729       H  0.76085098  0.05001536  0.60632079     0.18400
N1730       N  0.71116955  0.00867133  0.65081118    -0.88300
H1731       H  0.69843205  0.11978930  0.56511742     0.35800
H1732       H  0.68831312  0.09326457  0.52575964     0.40900
H1733       H  0.71987036  0.99311719  0.63571690     0.40500
H1734       H  0.72875451  0.02233039  0.67199369     0.35400
C1735       C  0.92399187  0.27795907  0.39194340    -0.26400
C1736       C  0.92680859  0.27576949  0.43298233    -0.14400
C1737       C  0.95068603  0.30325229  0.45378663     0.36200
C1738       C  0.96842778  0.33308543  0.43381509    -0.25800
C1739       C  0.96495142  0.33553158  0.39299815    -0.15000
C1740       C  0.94319857  0.30735034  0.37162708     0.37300
N1741       N  0.93974658  0.30916570  0.32965712    -0.89300
H1742       H  0.90549330  0.25703958  0.37600461     0.18400
H1743       H  0.98421603  0.35477506  0.45078799     0.18400
N1744       N  0.95754281  0.30206998  0.49488124    -0.88300
H1745       H  0.92240452  0.28638952  0.31842081     0.35800
H1746       H  0.96263436  0.31355154  0.31613237     0.40900
H1747       H  0.94244696  0.27903491  0.50703844     0.40500
H1748       H  0.95276637  0.32025151  0.51021226     0.35400
C1749       C  0.69400288  0.16690922  0.37982904    -0.26400
C1750       C  0.66877914  0.13442987  0.38347917    -0.14400
C1751       C  0.67389129  0.11194637  0.40814739     0.36200
C1752       C  0.70382712  0.12248893  0.42864955    -0.25800
C1753       C  0.72869994  0.15514578  0.42572786    -0.15000
C1754       C  0.72383569  0.17756341  0.40076071     0.37300
N1755       N  0.74945590  0.21075012  0.39593651    -0.89300
H1756       H  0.69051320  0.18394865  0.36021349     0.18400
H1757       H  0.70755358  0.10514372  0.44754243     0.18400
N1758       N  0.64863481  0.07849946  0.41250460    -0.88300
H1759       H  0.74176098  0.22413029  0.37691888     0.35800
H1760       H  0.76991741  0.20892828  0.38208730     0.40900
H1761       H  0.62786922  0.07961872  0.42633422     0.40500
H1762       H  0.65653354  0.06509862  0.43123579     0.35400
C1763       C  0.88569830  0.29613918  0.56087161    -0.26400
C1764       C  0.85457743  0.26918997  0.56550471    -0.14400
C1765       C  0.83174539  0.27168194  0.59395784     0.36200
C1766       C  0.84126654  0.30091848  0.61743575    -0.25800
C1767       C  0.87273323  0.32795652  0.61249673    -0.15000
C1768       C  0.89485727  0.32539264  0.58317347     0.37300
N1769       N  0.92601722  0.35273925  0.57357304    -0.89300
H1770       H  0.90254816  0.29484983  0.53814684     0.18400
H1771       H  0.82396137  0.30258041  0.63959435     0.18400
N1772       N  0.79935770  0.24503060  0.60060288    -0.88300
H1773       H  0.94192759  0.35839179  0.59754265     0.35800
H1774       H  0.92168013  0.37338189  0.56739294     0.40900
H1775       H  0.79573694  0.22427075  0.58288200     0.40500
H1776       H  0.78175365  0.25328286  0.59232127     0.35400
C1777       C  0.69408807  0.04123278  0.88580263    -0.26400
C1778       C  0.66318361  0.03863510  0.90027703    -0.14400
C1779       C  0.66152652  0.05450761  0.93615163     0.36200
C1780       C  0.69089397  0.07459868  0.95569424    -0.25800
C1781       C  0.72200756  0.07891352  0.94009808    -0.15000
C1782       C  0.72367922  0.06119366  0.90562762     0.37300
N1783       N  0.75540835  0.06523356  0.88962993    -0.89300
H1784       H  0.69515414  0.02859716  0.85834181     0.18400
H1785       H  0.68950977  0.08807569  0.98231056     0.18400
N1786       N  0.63003553  0.05064170  0.95239355    -0.88300
H1787       H  0.75229746  0.05110360  0.86357537     0.35800
H1788       H  0.76597443  0.05551913  0.91005855     0.40900
H1789       H  0.62740291  0.04076397  0.98070964     0.40500
H1790       H  0.63041340  0.07419726  0.95534502     0.35400
C1791       C  0.70094824  0.14181292  0.04665456    -0.26400
C1792       C  0.73173247  0.15014297  0.06443348    -0.14400
C1793       C  0.73277128  0.14720837  0.10597009     0.36200
C1794       C  0.70310523  0.13722726  0.12857492    -0.25800
C1795       C  0.67235931  0.12904968  0.11055988    -0.15000
C1796       C  0.67131914  0.13022650  0.06907956     0.37300
N1797       N  0.64006424  0.11814327  0.04947103    -0.89300
H1798       H  0.69967554  0.14273516  0.01472102     0.18400
H1799       H  0.70402447  0.13575550  0.16046813     0.18400
N1800       N  0.76322132  0.15473291  0.12624417    -0.88300
H1801       H  0.63827564  0.09846487  0.03066575     0.35800
H1802       H  0.64018341  0.13713718  0.03187400     0.40900
H1803       H  0.78375593  0.16344006  0.10691225     0.40500
H1804       H  0.76155588  0.13260126  0.13802462     0.35400
C1805       C  0.96356592  0.14643902  0.92828034    -0.26400
C1806       C  0.95662253  0.14556274  0.88804362    -0.14400
C1807       C  0.93323387  0.15683902  0.87594086     0.36200
C1808       C  0.91717062  0.16870838  0.90469256    -0.25800
C1809       C  0.92424806  0.16970147  0.94530014    -0.15000
C1810       C  0.94820295  0.15869180  0.95676637     0.37300
N1811       N  0.95698227  0.15942668  0.99740865    -0.89300
H1812       H  0.98126021  0.13751427  0.93780247     0.18400
H1813       H  0.89875905  0.17675854  0.89533947     0.18400
N1814       N  0.92582456  0.15604141  0.83466786    -0.88300
H1815       H  0.98260928  0.17396050  0.99970261     0.35800
H1816       H  0.95184204  0.13520866  0.00556147     0.40900
H1817       H  0.94749644  0.17237891  0.82006053     0.40500
H1818       H  0.90792654  0.16497735  0.83068786     0.35400
C1819       C  0.84928351  0.05185078  0.12749281    -0.26400
C1820       C  0.86559350  0.03506483  0.10723228    -0.14400
C1821       C  0.86692965  0.03504536  0.06550056     0.36200
C1822       C  0.85220580  0.05203013  0.04488167    -0.25800
C1823       C  0.83669848  0.06967952  0.06496204    -0.15000
C1824       C  0.83476642  0.06917099  0.10693240     0.37300
N1825       N  0.82025278  0.08747371  0.12971658    -0.89300
H1826       H  0.84786873  0.55160080  0.15936034     0.18400
H1827       H  0.85488862  0.05349979  0.01288718     0.18400
N1828       N  0.88423778  0.01866631  0.04429326    -0.88300
H1829       H  0.80020626  0.07030663  0.14601847     0.35800
H1830       H  0.81035368  0.09947556  0.11164967     0.40900
H1831       H  0.88291419  0.02089911  0.01372012     0.40500
H1832       H  0.90938252  0.03092575  0.05152357     0.35400
C1833       C  0.94944354  0.32270225  0.09375896    -0.26400
C1834       C  0.96932931  0.31995519  0.12366401    -0.14400
C1835       C  0.96776444  0.28870519  0.13226207     0.36200
C1836       C  0.94652837  0.26066852  0.11067145    -0.25800
C1837       C  0.92601156  0.26304940  0.08099919    -0.15000
C1838       C  0.92745992  0.29458575  0.07262697     0.37300
N1839       N  0.90589466  0.29792360  0.04388778    -0.89300
H1840       H  0.95042060  0.34686578  0.08774403     0.18400
H1841       H  0.94580469  0.23679278  0.11771147     0.18400
N1842       N  0.48677495  0.28516634  0.16384402    -0.88300
H1843       H  0.91055998  0.32284239  0.04096123     0.35800
H1844       H  0.88150671  0.28568279  0.05488582     0.40900
H1845       H  0.47020236  0.26885525  0.18443113     0.40500
H1846       H  0.50170983  0.27418785  0.15215592     0.35400
C1847       C  0.86065795  0.27688550  0.89070960    -0.26400
C1848       C  0.85097858  0.27654329  0.93052496    -0.14400
C1849       C  0.85140182  0.30572524  0.94858327     0.36200
C1850       C  0.86051935  0.33425146  0.92569815    -0.25800
C1851       C  0.86887625  0.33413805  0.88527306    -0.15000
C1852       C  0.86933413  0.30523141  0.86790773     0.37300
N1853       N  0.87744367  0.30420172  0.82670109    -0.89300
H1854       H  0.86061202  0.25464378  0.87688238     0.18400
H1855       H  0.86103771  0.35666004  0.93955288     0.18400
N1856       N  0.84393705  0.30774391  0.98998693    -0.88300
H1857       H  0.85722908  0.28503038  0.81306754     0.35800
H1858       H  0.89781853  0.29838858  0.82431886     0.40900
H1859       H  0.83880374  0.28562564  0.00444516     0.40500
H1860       H  0.82240773  0.31163598  0.99218331     0.35400
O1861       O  0.86185607  0.61946124  0.02967618    -0.80900
O1862       O  0.86202637  0.73508056  0.95794702    -0.65600
O1863       O  0.84288322  0.66915837  0.03445564    -1.12200
C1864       C  0.75192552  0.60774144  0.95532493     1.06000
O1865       O  0.81010584  0.72993277  0.96328313    -0.78800
O1866       O  0.76784155  0.68160307  0.01351896    -0.66400
Ni1867     Ni  0.87851979  0.66217025  0.05416410     1.34900
C1868       C  0.76072826  0.65800586  0.03764228     0.84700
O1869       O  0.89167775  0.73455256  0.02651481    -0.79400
O1870       O  0.89611443  0.70538697  0.07756273    -0.89600
C1871       C  0.84036365  0.74562774  0.95167046     0.84300
O1872       O  0.91018428  0.67830948  0.01176686    -0.67800
O1873       O  0.75148798  0.63615626  0.95289464    -0.87100
C1874       C  0.90457835  0.67957093  0.97554903     0.85100
C1875       C  0.90315992  0.73286022  0.06046879     1.06700
H1876       H  0.82427669  0.66553516  0.94359533     0.38500
O1877       O  0.81705918  0.67059850  0.96914183    -1.09800
O1878       O  0.77454950  0.63817015  0.03610272    -0.66400
Ni1879     Ni  0.80964457  0.63482378  0.00353620     1.26300
O1880       O  0.88158969  0.68712438  0.96495624    -0.66700
O1881       O  0.77559060  0.60312634  0.97067481    -0.79000
C1882       C  0.83484248  0.59721951  0.04266550     0.84500
O1883       O  0.80772330  0.59981180  0.03778602    -0.66100
Ni1884     Ni  0.78198232  0.68236820  0.95955364     1.27400
Ni1885     Ni  0.85417283  0.70271188  0.99674318     1.26100
H1886       H  0.83226214  0.67490945  0.05675541     0.39000
O1887       O  0.77664322  0.69476653  0.45919624    -0.80900
O1888       O  0.90358659  0.69297699  0.53833158    -0.65600
O1889       O  0.83475407  0.68545969  0.46724714    -1.12200
C1890       C  0.76898528  0.59991049  0.55740419     1.06000
O1891       O  0.88268447  0.63913930  0.52858432    -0.78800
O1892       O  0.82456366  0.59153401  0.50961400    -0.66400
Ni1893     Ni  0.82452835  0.72140293  0.45681850     1.34900
C1894       C  0.82189892  0.59661483  0.47353608     0.84700
O1895       O  0.90285030  0.72546690  0.47043966    -0.79400
O1896       O  0.87123891  0.75038529  0.45024356    -0.89600
C1897       C  0.90555889  0.66549760  0.54186471     0.84300
O1898       O  0.82449157  0.73570766  0.51094913    -0.67800
O1899       O  0.79606774  0.60535846  0.57461514    -0.87100
C1900       C  0.84707785  0.74145952  0.53618114     0.85100
C1901       C  0.89913396  0.74878218  0.45293098     1.06700
H1902       H  0.82838458  0.66979129  0.55511220     0.38500
O1903       O  0.83406704  0.65912833  0.53286295    -1.09800
O1904       O  0.81518118  0.62020824  0.46318415    -0.66400
Ni1905     Ni  0.80118679  0.64909928  0.49449604     1.26300
O1906       O  0.86659097  0.72727261  0.53468359    -0.66700
O1907       O  0.76800160  0.61250162  0.52398508    -0.79000
C1908       C  0.76016831  0.66474538  0.44736197     0.84500
O1909       O  0.76946434  0.64239563  0.45510797    -0.66100
Ni1910     Ni  0.83978780  0.62279435  0.55237708     1.27400
Ni1911     Ni  0.86967877  0.69196182  0.50278772     1.26100
H1912       H  0.83999481  0.67789640  0.44197858     0.39000
O1913       O  0.93326940  0.53879921  0.70698845    -0.74500
O1914       O  0.89020158  0.96957413  0.78648001    -0.74500
O1915       O  0.92575711  0.54343007  0.78578628    -0.74500
O1916       O  0.89777466  0.96868160  0.70779316    -0.74600
O1917       O  0.94340472  0.96531083  0.72323187    -0.74500
O1918       O  0.97047213  0.53631566  0.79735860    -0.74500
O1919       O  0.93966459  0.97521355  0.80238429    -0.74500
O1920       O  0.97850925  0.53208811  0.71715565    -0.74500
Ni1921     Ni  0.90940512  0.50544614  0.74732719     1.25400
Ni1922     Ni  0.95942739  0.50218998  0.75999764     1.25400
C1923       C  0.96453457  0.54747561  0.69976491     0.87700
C1924       C  0.90912537  0.95802420  0.80250967     0.87700
C1925       C  0.95555971  0.55452965  0.79961891     0.87700
C1926       C  0.91651095  0.95335332  0.70427356     0.87900
O1927       O  0.60856235  0.56784756  0.71470235    -0.74500
O1928       O  0.56621663  0.60860456  0.78927141    -0.74500
O1929       O  0.60282562  0.57042167  0.79501272    -0.74500
O1930       O  0.57041330  0.60445797  0.70917251    -0.74600
O1931       O  0.53534111  0.55225014  0.69876421    -0.74500
O1932       O  0.55036952  0.53513056  0.80378260    -0.74500
O1933       O  0.52019720  0.56819478  0.76943393    -0.74500
O1934       O  0.56788420  0.52142335  0.73299260    -0.74500
Ni1935     Ni  0.58987321  0.59066771  0.75210082     1.25400
Ni1936     Ni  0.54164727  0.54243064  0.75122028     1.25400
C1937       C  0.59426426  0.53571856  0.71323942     0.87700
C1938       C  0.53402538  0.59431036  0.78962822     0.87700
C1939       C  0.58068939  0.54402433  0.81132961     0.87700
C1940       C  0.54418811  0.58268934  0.69222197     0.87900
O1941       O  0.53840544  0.93346212  0.79412461    -0.74500
O1942       O  0.96989866  0.89137292  0.71281828    -0.74500
O1943       O  0.54390203  0.92738930  0.71487410    -0.74500
O1944       O  0.96804730  0.89794852  0.79159005    -0.74600
O1945       O  0.96500382  0.94390186  0.77717513    -0.74500
O1946       O  0.53622749  0.97181525  0.70387383    -0.74500
O1947       O  0.97542328  0.94091387  0.69798186    -0.74500
O1948       O  0.53172796  0.97866292  0.78428184    -0.74500
Ni1949     Ni  0.50539664  0.91021073  0.75304681     1.25400
Ni1950     Ni  0.50198411  0.96017724  0.74115167     1.25400
C1951       C  0.54690400  0.96454958  0.80187204     0.87700
C1952       C  0.95834504  0.91038415  0.69700266     0.87700
C1953       C  0.55468865  0.95721998  0.70117393     0.87700
C1954       C  0.95264926  0.91663927  0.79529904     0.87900
C1955       C  0.98451705  0.62048070  0.63075430     0.02300
C1956       C  0.51942202  0.63653213  0.62954212     0.02200
C1957       C  0.53741426  0.62239149  0.64876797    -0.18300
C1958       C  0.52157578  0.59272597  0.66992876     0.02300
C1959       C  0.98526872  0.57649654  0.67277579     0.02200
C1960       C  0.96785152  0.59088722  0.65184287    -0.18300
H1961       H  0.94088030  0.57944836  0.65252802     0.04300
H1962       H  0.56438193  0.63503466  0.64750408     0.04300
C1963       C  0.63218536  0.97868231  0.63644010     0.02300
C1964       C  0.64936309  0.51409884  0.64178128     0.02200
C1965       C  0.63653803  0.53074478  0.66777141    -0.18300
C1966       C  0.60653967  0.51406393  0.68857512     0.02300
C1967       C  0.58879501  0.97745052  0.68350829     0.02200
C1968       C  0.60288933  0.96098645  0.65861712    -0.18300
H1969       H  0.58982300  0.93428530  0.65445236     0.04300
H1970       H  0.64993993  0.55751783  0.67086091     0.04300
C1971       C  0.87676076  0.86397914  0.86036371     0.02300
C1972       C  0.85529073  0.87994492  0.85784241     0.02200
C1973       C  0.86644242  0.90946173  0.83632760    -0.18300
C1974       C  0.89821361  0.92410147  0.81883668     0.02300
C1975       C  0.91955523  0.90665192  0.81876251     0.02200
C1976       C  0.90786747  0.87710780  0.84025834    -0.18300
H1977       H  0.92362664  0.86426321  0.84220036     0.04300
H1978       H  0.85055143  0.92219171  0.83456000     0.04300
C1979       C  0.88212940  0.85859364  0.63732504     0.02300
C1980       C  0.86518062  0.87916307  0.63626725     0.02200
C1981       C  0.87765865  0.90956867  0.65773080    -0.18300
C1982       C  0.90699644  0.92086365  0.67987642     0.02300
C1983       C  0.92462541  0.89964739  0.67965920     0.02200
C1984       C  0.91060103  0.86855595  0.66052549    -0.18300
H1985       H  0.92312380  0.85246369  0.66194534     0.04300
H1986       H  0.86430045  0.92490193  0.65666765     0.04300
C1987       C  0.63305690  0.52016574  0.87728926     0.02300
C1988       C  0.61873487  0.98504060  0.87403384     0.02200
C1989       C  0.59014019  0.96798150  0.85099502    -0.18300
C1990       C  0.57523582  0.98504970  0.82997372     0.02300
C1991       C  0.59031381  0.52151866  0.83445402     0.02200
C1992       C  0.61834859  0.53763368  0.85815631    -0.18300
H1993       H  0.62964291  0.56452774  0.86095029     0.04300
H1994       H  0.57993059  0.94114011  0.84889482     0.04300
C1995       C  0.97509701  0.63379855  0.85971566     0.02300
C1996       C  0.51017091  0.65009752  0.85702254     0.02200
C1997       C  0.52769896  0.63692686  0.83296271    -0.18300
C1998       C  0.51169487  0.60653294  0.81296554     0.02300
C1999       C  0.97532206  0.58891262  0.81653117     0.02200
C2000       C  0.95803508  0.60375997  0.83883207    -0.18300
H2001       H  0.93121482  0.59073833  0.84222574     0.04300
H2002       H  0.55457326  0.65035454  0.83087357     0.04300
O2003       O  0.61832332  0.86096867  0.47202558    -0.80900
O2004       O  0.73341970  0.86308911  0.54212926    -0.65600
O2005       O  0.66745949  0.84310252  0.46516985    -1.12200
C2006       C  0.60510712  0.75497074  0.54921907     1.06000
O2007       O  0.72739192  0.81098588  0.53818135    -0.78800
O2008       O  0.67747123  0.76584716  0.49204607    -0.66400
Ni2009     Ni  0.66002154  0.87841754  0.44575124     1.34900
C2010       C  0.65547356  0.75993090  0.46594332     0.84700
O2011       O  0.73236759  0.89180481  0.47273536    -0.79400
O2012       O  0.70310951  0.89688732  0.42191499    -0.89600
C2013       C  0.74364048  0.84127154  0.54913230     0.84300
O2014       O  0.67558746  0.91060790  0.48748926    -0.67800
O2015       O  0.63349475  0.75491828  0.55406881    -0.87100
C2016       C  0.67734751  0.90524509  0.52369524     0.85100
C2017       C  0.73054055  0.90365470  0.43906868     1.06700
H2018       H  0.66283152  0.82620148  0.55615320     0.38500
O2019       O  0.66828493  0.81832208  0.53128611    -1.09800
O2020       O  0.63664133  0.77483365  0.46514819    -0.66400
Ni2021     Ni  0.63267336  0.81008004  0.49617560     1.26300
O2022       O  0.68544902  0.88265595  0.53413938    -0.66700
O2023       O  0.60047295  0.77663562  0.52930409    -0.79000
C2024       C  0.59529253  0.83493827  0.45867459     0.84500
O2025       O  0.59768779  0.80758009  0.46117778    -0.66100
Ni2026     Ni  0.67976395  0.78387010  0.54441858     1.27400
Ni2027     Ni  0.70080037  0.85480255  0.50311171     1.26100
H2028       H  0.67333791  0.83254880  0.44302155     0.39000
O2029       O  0.68747984  0.76923657  0.02867420    -0.80900
O2030       O  0.69174218  0.90312248  0.96581243    -0.65600
O2031       O  0.68273584  0.82959338  0.02943976    -1.12200
C2032       C  0.59327871  0.77111614  0.94071131     1.06000
O2033       O  0.63770809  0.88411581  0.97487303    -0.78800
O2034       O  0.58898279  0.82523561  0.99201661    -0.66400
Ni2035     Ni  0.71744437  0.81618129  0.03340835     1.34900
C2036       C  0.59507863  0.82248060  0.02772345     0.84700
O2037       O  0.72586864  0.89658358  0.03010339    -0.79400
O2038       O  0.74949353  0.86178156  0.04159654    -0.89600
C2039       C  0.66488219  0.90648007  0.96234429     0.84300
O2040       O  0.72876605  0.81832301  0.97777194    -0.67800
O2041       O  0.60058928  0.79892684  0.92434565    -0.87100
C2042       C  0.73586313  0.84352370  0.95616200     0.85100
C2043       C  0.74994170  0.89073347  0.04229494     1.06700
H2044       H  0.66507663  0.82815801  0.94332246     0.38500
O2045       O  0.65518994  0.83366044  0.96656370    -1.09800
O2046       O  0.61818533  0.81453324  0.03675244    -0.66400
Ni2047     Ni  0.64423699  0.79895754  0.00259300     1.26300
O2048       O  0.72286026  0.86365421  0.96217783    -0.66700
O2049       O  0.60556884  0.76864285  0.97375166    -0.79000
C2050       C  0.65865719  0.75496498  0.04504520     0.84500
O2051       O  0.63674969  0.76547952  0.03993151    -0.66100
Ni2052     Ni  0.61968848  0.84185808  0.94894061     1.27400
Ni2053     Ni  0.68978268  0.86667695  0.99764407     1.26100
H2054       H  0.67675695  0.83384962  0.05598729     0.39000
O2055       O  0.96782580  0.52278332  0.21783816    -0.74500
O2056       O  0.52582230  0.56014539  0.30249395    -0.74500
O2057       O  0.96475339  0.53053832  0.29835035    -0.74500
O2058       O  0.53475301  0.55643503  0.22274865    -0.74600
O2059       O  0.53307662  0.60342056  0.21020690    -0.74500
O2060       O  0.95692005  0.57463217  0.28583011    -0.74500
O2061       O  0.53051287  0.60976579  0.28905036    -0.74500
O2062       O  0.96256105  0.56853494  0.20697465    -0.74500
Ni2063     Ni  0.99838257  0.54109737  0.26006082     1.25400
Ni2064     Ni  0.99554137  0.59141023  0.24828290     1.25400
C2065       C  0.95309678  0.53717573  0.20005007     0.87700
C2066       C  0.54225817  0.59075533  0.30445113     0.87700
C2067       C  0.94612433  0.54501142  0.29994926     0.87700
C2068       C  0.54774045  0.58414179  0.20542250     0.87900
O2069       O  0.93241871  0.89931028  0.29456390    -0.74500
O2070       O  0.89815690  0.93137150  0.20827671    -0.74500
O2071       O  0.93521502  0.89343474  0.21464836    -0.74500
O2072       O  0.89340052  0.93496670  0.28832764    -0.74600
O2073       O  0.93387022  0.98127329  0.26924747    -0.74500
O2074       O  0.98143472  0.93467450  0.23240749    -0.74500
O2075       O  0.95029042  0.96695045  0.19821939    -0.74500
O2076       O  0.96758571  0.95174182  0.30320529    -0.74500
Ni2077     Ni  0.91200999  0.91194989  0.25146231     1.25400
Ni2078     Ni  0.96008875  0.96046895  0.25071819     1.25400
C2079       C  0.95886978  0.92149644  0.31073480     0.87700
C2080       C  0.91978499  0.95786249  0.19151383     0.87700
C2081       C  0.96736658  0.90782770  0.21359196     0.87700
C2082       C  0.90743033  0.96706566  0.28888310     0.87900
C2083       C  0.84908355  0.98936848  0.35344675     0.02300
C2084       C  0.86536667  0.52432725  0.35761096     0.02200
C2085       C  0.89610271  0.54169182  0.33804925    -0.18300
C2086       C  0.91155338  0.52489008  0.31604442     0.02300
C2087       C  0.89431022  0.98882938  0.31159454     0.02200
C2088       C  0.86335379  0.97238936  0.33023922    -0.18300
H2089       H  0.85030864  0.94553914  0.32780254     0.04300
H2090       H  0.90904063  0.56841516  0.34204841     0.04300
O2091       O  0.52396685  0.97052680  0.28380174    -0.74500
O2092       O  0.56077966  0.52567163  0.19693933    -0.74500
O2093       O  0.53114630  0.96515781  0.20372458    -0.74500
O2094       O  0.55858172  0.53713888  0.27581467    -0.74600
O2095       O  0.60483698  0.53470327  0.29026300    -0.74500
O2096       O  0.57580738  0.95814502  0.21569064    -0.74500
O2097       O  0.61071631  0.53167284  0.21141013    -0.74500
O2098       O  0.56970290  0.96483672  0.29418771    -0.74500
Ni2099     Ni  0.54212494  0.99974814  0.24049008     1.25400
Ni2100     Ni  0.59259569  0.99719471  0.25259221     1.25400
C2101       C  0.53840754  0.95584351  0.30151849     0.87700
C2102       C  0.59126355  0.54272536  0.19564466     0.87700
C2103       C  0.54584808  0.94676367  0.20230239     0.87700
C2104       C  0.58582263  0.54972803  0.29405835     0.87900
C2105       C  0.86591465  0.98133392  0.12681199     0.02300
C2106       C  0.88005309  0.51635526  0.12939582     0.02200
C2107       C  0.90859109  0.53341279  0.15261751    -0.18300
C2108       C  0.92411341  0.51652651  0.17285479     0.02300
C2109       C  0.90944153  0.98031230  0.16896077     0.02200
C2110       C  0.88090748  0.96409097  0.14609159    -0.18300
H2111       H  0.86971246  0.93718741  0.14355121     0.04300
H2112       H  0.91871992  0.56024995  0.15486960     0.04300
C2113       C  0.63683935  0.62388440  0.36218419     0.02300
C2114       C  0.61769571  0.64238243  0.36526294     0.02200
C2115       C  0.58802165  0.63150671  0.34432861    -0.18300
C2116       C  0.57578465  0.60179174  0.32205403     0.02300
C2117       C  0.59512729  0.58220381  0.31860163     0.02200
C2118       C  0.62566475  0.59479218  0.33836833    -0.18300
H2119       H  0.64112997  0.58156366  0.33556947     0.04300
H2120       H  0.57332579  0.64557013  0.34713650     0.04300
C2121       C  0.64148273  0.61841585  0.13570674     0.02300
C2122       C  0.62084898  0.63533965  0.13605673     0.02200
C2123       C  0.59167574  0.62376632  0.15979639    -0.18300
C2124       C  0.58037010  0.59396329  0.18083580     0.02300
C2125       C  0.60140394  0.57605139  0.17849365     0.02200
C2126       C  0.63171423  0.58942584  0.15747358    -0.18300
H2127       H  0.64709136  0.57601725  0.15607652     0.04300
H2128       H  0.57712916  0.63800277  0.16084369     0.04300
C2129       C  0.51872420  0.88261733  0.36965154     0.02300
C2130       C  0.98386120  0.86810121  0.37351208     0.02200
C2131       C  0.96599992  0.88323452  0.35600841    -0.18300
C2132       C  0.98175916  0.91198839  0.33336140     0.02300
C2133       C  0.51798938  0.92718962  0.32887679     0.02200
C2134       C  0.53540275  0.91203680  0.34834713    -0.18300
H2135       H  0.56232534  0.92263975  0.34620029     0.04300
H2136       H  0.93907368  0.87161150  0.35899139     0.04300
C2137       C  0.52470223  0.86616007  0.14481887     0.02300
C2138       C  0.98974976  0.84995064  0.14836130     0.02200
C2139       C  0.97274662  0.86380463  0.17215725    -0.18300
C2140       C  0.98927131  0.89469414  0.19105065     0.02300
C2141       C  0.52562881  0.91195026  0.18689026     0.02200
C2142       C  0.54235341  0.89642032  0.16493279    -0.18300
H2143       H  0.56912291  0.90923314  0.16073145     0.04300
H2144       H  0.94584835  0.85076562  0.17439042     0.04300
C2145       C  0.66067390  0.69282078  0.11892166    -0.26400
C2146       C  0.62976903  0.66581972  0.11247080    -0.14400
C2147       C  0.60831008  0.66852160  0.08384049     0.36200
C2148       C  0.61842961  0.69815579  0.06299841    -0.25800
C2149       C  0.64974540  0.72480193  0.06871299    -0.15000
C2150       C  0.67095816  0.72229199  0.09777344     0.37300
N2151       N  0.70241418  0.74916113  0.10787545    -0.89300
H2152       H  0.67689688  0.69119936  0.14129929     0.18400
H2153       H  0.60192886  0.69998446  0.04111766     0.18400
N2154       N  0.57668735  0.64170870  0.07414145    -0.88300
H2155       H  0.70141588  0.75444789  0.13809790     0.35800
H2156       H  0.70646322  0.77108256  0.09376706     0.40900
H2157       H  0.57298576  0.61973829  0.08794390     0.40500
H2158       H  0.57719887  0.63656787  0.04381444     0.35400
C2159       C  0.55796624  0.84894141  0.04699938    -0.26400
C2160       C  0.57552326  0.83096117  0.05871835    -0.14400
C2161       C  0.57586868  0.82420648  0.09934804     0.36200
C2162       C  0.55954186  0.83648486  0.12712612    -0.25800
C2163       C  0.54249589  0.85471674  0.11499928    -0.15000
C2164       C  0.54185538  0.86115937  0.07438035     0.37300
N2165       N  0.52544849  0.88019516  0.05967245    -0.89300
H2166       H  0.55750678  0.85469498  0.01610396     0.18400
H2167       H  0.55973244  0.83151922  0.15833721     0.18400
N2168       N  0.59254681  0.80494271  0.11228480    -0.88300
H2169       H  0.54356606  0.90121277  0.04602111     0.35800
H2170       H  0.51491619  0.88904576  0.08235560     0.40900
H2171       H  0.57999979  0.78096445  0.10036321     0.40500
H2172       H  0.59063329  0.80257733  0.14308397     0.35400
C2173       C  0.77659690  0.93760619  0.09025506    -0.26400
C2174       C  0.78022972  0.91805115  0.05885297    -0.14400
C2175       C  0.81279166  0.92162483  0.04825829     0.36200
C2176       C  0.84009762  0.94359082  0.06984721    -0.25800
C2177       C  0.83622420  0.96174477  0.10235671    -0.15000
C2178       C  0.80420951  0.95894893  0.11245780     0.31500
N2179       N  0.79937640  0.97627010  0.14650377    -0.89300
H2180       H  0.75195501  0.93470233  0.09927321     0.18400
H2181       H  0.86471759  0.94584692  0.06177297     0.18400
N2182       N  0.81946903  0.90352834  0.01603006    -0.88300
H2183       H  0.78309522  0.95866600  0.16614817     0.35800
H2184       H  0.78780076  0.99087673  0.13734342     0.40900
H2185       H  0.79804190  0.88828528  0.00107662     0.40500
H2186       H  0.82892455  0.88799078  0.02793497     0.35400
C2187       C  0.63379558  0.70316643  0.37425816    -0.26400
C2188       C  0.62731826  0.67252928  0.39144944    -0.14400
C2189       C  0.63046961  0.67140130  0.43297143     0.36200
C2190       C  0.64260110  0.70102510  0.45527360    -0.25800
C2191       C  0.64886753  0.73159763  0.43824594    -0.15000
C2192       C  0.64421281  0.73265613  0.39706612     0.37300
N2193       N  0.65008316  0.76292600  0.37729301    -0.89300
H2194       H  0.63097942  0.70421923  0.34261892     0.18400
H2195       H  0.64485770  0.69972885  0.48701731     0.18400
N2196       N  0.62035234  0.64072717  0.45378221    -0.88300
H2197       H  0.66852314  0.76685944  0.35557180     0.35800
H2198       H  0.65982860  0.78344627  0.39642999     0.40900
H2199       H  0.60793600  0.62035427  0.43511708     0.40500
H2200       H  0.60253379  0.63973928  0.47518353     0.35400
C2201       C  0.56018434  0.82804239  0.39993367    -0.26400
C2202       C  0.56863453  0.83961869  0.43900778    -0.14400
C2203       C  0.55936921  0.86431439  0.45468847     0.36200
C2204       C  0.54598573  0.87966224  0.43011613    -0.25800
C2205       C  0.53800622  0.86869478  0.39117667    -0.15000
C2206       C  0.54415551  0.84204093  0.37596031     0.37300
N2207       N  0.03447804  0.82976089  0.33636436    -0.89300
H2208       H  0.56760744  0.80953479  0.38756153     0.18400
H2209       H  0.53999587  0.89924918  0.44220991     0.18400
N2210       N  0.56273795  0.87399522  0.49579677    -0.88300
H2211       H  0.04061246  0.81000993  0.32977385     0.35800
H2212       H  0.04841922  0.84882229  0.31689012     0.40900
H2213       H  0.58775063  0.88677344  0.50310477     0.40500
H2214       H  0.55158967  0.85261174  0.51285171     0.35400
C2215       C  0.82002221  0.94561432  0.40248304    -0.26400
C2216       C  0.81860744  0.96892333  0.37638179    -0.14400
C2217       C  0.78858667  0.97174141  0.37201969     0.36200
C2218       C  0.76032460  0.95071420  0.39367526    -0.25800
C2219       C  0.76145719  0.92660154  0.41894210    -0.15000
C2220       C  0.79173219  0.92416858  0.42353084     0.37300
N2221       N  0.79349674  0.89936926  0.44852955    -0.89300
H2222       H  0.84334067  0.94382939  0.40588135     0.18400
H2223       H  0.73719230  0.95288615  0.39043326     0.18400
N2224       N  0.78703781  0.49557294  0.34577522    -0.88300
H2225       H  0.81776372  0.90136706  0.44901084     0.35800
H2226       H  0.77882162  0.87612440  0.43587665     0.40900
H2227       H  0.79131852  0.48878607  0.31706531     0.40500
H2228       H  0.76319277  0.49472704  0.34632933     0.35400
C2229       C  0.52601083  0.70962951  0.87379005    -0.26400
C2230       C  0.52973070  0.68056711  0.88037523    -0.14400
C2231       C  0.55266320  0.68074227  0.90845253     0.36200
C2232       C  0.57260237  0.71051236  0.92812350    -0.25800
C2233       C  0.57007396  0.74017028  0.92045313    -0.15000
C2234       C  0.54572746  0.73932366  0.89350828     0.37300
N2235       N  0.53980167  0.76779212  0.88605365    -0.89300
H2236       H  0.50799596  0.70934366  0.85264709     0.18400
H2237       H  0.59071028  0.71061784  0.94899806     0.18400
N2238       N  0.55581862  0.65070553  0.91650363    -0.88300
H2239       H  0.56079259  0.78586672  0.87217916     0.35800
H2240       H  0.53514589  0.77713691  0.91306804     0.40900
H2241       H  0.53323788  0.63380710  0.92877945     0.40500
H2242       H  0.57388573  0.65507902  0.93783592     0.35400
C2243       C  0.66815794  0.93664144  0.90070581    -0.26400
C2244       C  0.66266996  0.93412569  0.94184092    -0.14400
C2245       C  0.64456959  0.94996732  0.96037695     0.36200
C2246       C  0.63038958  0.96610192  0.93753244    -0.25800
C2247       C  0.63381020  0.96671137  0.89612024    -0.15000
C2248       C  0.65406504  0.95291722  0.87752577     0.37300
N2249       N  0.66040334  0.45429315  0.83474966    -0.89300
H2250       H  0.68141813  0.92385740  0.88613318     0.18400
H2251       H  0.61597377  0.97764957  0.95216336     0.18400
N2252       N  0.63917463  0.94816278  0.00245244    -0.88300
H2253       H  0.68603228  0.46761977  0.82992295     0.35800
H2254       H  0.64923030  0.46735574  0.82069838     0.40900
H2255       H  0.61351457  0.93669897  0.00811122     0.40500
H2256       H  0.64845360  0.97241601  0.01392784     0.35400
C2257       C  0.77587166  0.85921490  0.61031569    -0.26400
C2258       C  0.77528527  0.85133599  0.56982851    -0.14400
C2259       C  0.80447284  0.85250536  0.55072517     0.36200
C2260       C  0.83369385  0.86236524  0.57257848    -0.25800
C2261       C  0.83408499  0.86952787  0.61341024    -0.15000
C2262       C  0.80469450  0.86754436  0.63234466     0.37300
N2263       N  0.80377654  0.87300073  0.67425836    -0.89300
H2264       H  0.75347908  0.85793889  0.62522001     0.18400
H2265       H  0.85622454  0.86422406  0.55755258     0.18400
N2266       N  0.80566072  0.84449901  0.50936086    -0.88300
H2267       H  0.79680925  0.89238959  0.67930387     0.35800
H2268       H  0.78538819  0.85150764  0.68673082     0.40900
H2269       H  0.78299042  0.83842785  0.49570829     0.40500
H2270       H  0.81017503  0.82334646  0.50735353     0.35400
C2271       C  0.76866899  0.82788397  0.90437096    -0.26400
C2272       C  0.76323085  0.85248349  0.92602796    -0.14400
C2273       C  0.78669196  0.88605751  0.92223672     0.36200
C2274       C  0.81667287  0.89356472  0.90150204    -0.25800
C2275       C  0.82270547  0.86914439  0.88026778    -0.15000
C2276       C  0.79733505  0.83620472  0.87999881     0.37300
N2277       N  0.80004435  0.81134656  0.85445509    -0.89300
H2278       H  0.75040926  0.80221332  0.90592447     0.18400
H2279       H  0.83554231  0.91901103  0.90180318     0.18400
N2280       N  0.78090102  0.91248020  0.94108274    -0.88300
H2281       H  0.77995860  0.80279498  0.83520721     0.35800
H2282       H  0.79767005  0.79137546  0.87188453     0.40900
H2283       H  0.76181444  0.91464285  0.92583199     0.40500
H2284       H  0.80173239  0.93527602  0.93808217     0.35400
C2285       C  0.65638434  0.94776128  0.54002195    -0.26400
C2286       C  0.66791663  0.92505770  0.55371815    -0.14400
C2287       C  0.66705227  0.91987152  0.59505864     0.36200
C2288       C  0.65534086  0.93779914  0.62118046    -0.25800
C2289       C  0.64386418  0.96029659  0.60718846    -0.15000
C2290       C  0.64378826  0.96476574  0.56585905     0.37300
N2291       N  0.62961709  0.98485916  0.54869912    -0.89300
H2292       H  0.65583421  0.95157394  0.50854143     0.18400
H2293       H  0.65500515  0.93413237  0.65281522     0.18400
N2294       N  0.67760559  0.89630498  0.61059413    -0.88300
H2295       H  0.64887204  0.00488876  0.53483569     0.35800
H2296       H  0.61857870  0.99448656  0.56994299     0.40900
H2297       H  0.65978269  0.87258561  0.60277475     0.40500
H2298       H  0.67749940  0.89729604  0.64156014     0.35400
C2299       C  0.57514068  0.72744490  0.60967517    -0.26400
C2300       C  0.57686631  0.72766608  0.56818427    -0.14400
C2301       C  0.55764452  0.69837853  0.54666363     0.36200
C2302       C  0.53848262  0.66909163  0.56702474    -0.25800
C2303       C  0.53777540  0.66851582  0.60864114    -0.15000
C2304       C  0.55580342  0.69816050  0.63003070     0.37300
N2305       N  0.55553241  0.69830642  0.67244382    -0.89300
H2306       H  0.59044470  0.74966497  0.62638011     0.18400
H2307       H  0.52540971  0.64634456  0.55020370     0.18400
N2308       N  0.55866384  0.69731444  0.50423208    -0.88300
H2309       H  0.58001185  0.70604807  0.68168021     0.35800
H2310       H  0.54736564  0.71593276  0.68263101     0.40900
H2311       H  0.58319129  0.70382265  0.49477093     0.40500
H2312       H  0.55137066  0.71504063  0.49389194     0.35400
C2313       C  0.93920373  0.67166743  0.60162559    -0.26400
C2314       C  0.93246596  0.66158174  0.56186275    -0.14400
C2315       C  0.94353204  0.63869590  0.54518815     0.36200
C2316       C  0.95925195  0.62475652  0.56874040    -0.25800
C2317       C  0.96533743  0.63410856  0.60851190    -0.15000
C2318       C  0.95579354  0.65809071  0.62524305     0.37300
N2319       N  0.96157038  0.66724197  0.66640247    -0.89300
H2320       H  0.92960387  0.68826045  0.61485052     0.18400
H2321       H  0.46695510  0.60659921  0.55581210     0.18400
N2322       N  0.93737916  0.62844696  0.50446092    -0.88300
H2323       H  0.95249770  0.68469076  0.67426777     0.35800
H2324       H  0.98726836  0.67901130  0.67030929     0.40900
H2325       H  0.92304392  0.60271863  0.50342857     0.40500
H2326       H  0.96023430  0.63363490  0.49034550     0.35400
C2327       C  0.84813166  0.53322231  0.42557151    -0.26400
C2328       C  0.85258233  0.54260472  0.38578074    -0.14400
C2329       C  0.84431985  0.56842647  0.37414009     0.36200
C2330       C  0.83327698  0.58490939  0.40296304    -0.25800
C2331       C  0.82894008  0.57552734  0.44297373    -0.15000
C2332       C  0.83496636  0.54809826  0.45376628     0.37300
N2333       N  0.82772808  0.53524926  0.49326516    -0.89300
H2334       H  0.85455082  0.51361916  0.43467282     0.18400
H2335       H  0.82828986  0.60543407  0.39387856     0.18400
N2336       N  0.84587682  0.57804660  0.33354609    -0.88300
H2337       H  0.83405561  0.51539411  0.49623839     0.35800
H2338       H  0.80193393  0.52551033  0.49762648     0.40900
H2339       H  0.85181576  0.56272955  0.31417349     0.40500
H2340       H  0.86480013  0.60212440  0.33097095     0.35400
C2341       C  0.67870252  0.55824521  0.59267338    -0.26400
C2342       C  0.67967851  0.53458629  0.61862743    -0.14400
C2343       C  0.70989320  0.53268032  0.62448288     0.36200
C2344       C  0.73843154  0.55367971  0.60346848    -0.25800
C2345       C  0.73761668  0.57733608  0.57724815    -0.15000
C2346       C  0.70736036  0.57964753  0.57199068     0.37300
N2347       N  0.70581118  0.60437051  0.54693296    -0.89300
H2348       H  0.65558207  0.56033515  0.58883017     0.18400
H2349       H  0.76148958  0.55170240  0.60819927     0.18400
N2350       N  0.71199747  0.51043622  0.65294308    -0.88300
H2351       H  0.69766337  0.61936553  0.56414629     0.35800
H2352       H  0.68801697  0.59230251  0.52534115     0.40900
H2353       H  0.72100810  0.49491009  0.63837160     0.40500
H2354       H  0.72943048  0.52455269  0.67405490     0.35400
C2355       C  0.92479891  0.77803918  0.39195306    -0.26400
C2356       C  0.92739933  0.77563083  0.43298936    -0.14400
C2357       C  0.95108022  0.80304985  0.45408530     0.36200
C2358       C  0.96863502  0.83310039  0.43443740    -0.25800
C2359       C  0.96526216  0.83579012  0.39362593    -0.15000
C2360       C  0.94389454  0.80762245  0.37194861     0.37300
N2361       N  0.94069339  0.80964164  0.32996504    -0.89300
H2362       H  0.90649847  0.75714163  0.37577676     0.18400
H2363       H  0.98417095  0.85473792  0.45165670     0.18400
N2364       N  0.95790371  0.80157378  0.49514085    -0.88300
H2365       H  0.92360062  0.78685074  0.31847334     0.35800
H2366       H  0.96372652  0.81433089  0.31664048     0.40900
H2367       H  0.94279675  0.77845393  0.50709159     0.40500
H2368       H  0.95310089  0.81962748  0.51072554     0.35400
C2369       C  0.69378825  0.66663216  0.37994368    -0.26400
C2370       C  0.66856049  0.63421302  0.38401720    -0.14400
C2371       C  0.67374814  0.61189850  0.40886772     0.36200
C2372       C  0.70380693  0.62254435  0.42912901    -0.25800
C2373       C  0.72875444  0.65512430  0.42568879    -0.15000
C2374       C  0.72378175  0.67737420  0.40054067     0.37300
N2375       N  0.74945373  0.71045749  0.39515923    -0.89300
H2376       H  0.69020703  0.68352122  0.36017213     0.18400
H2377       H  0.70759984  0.60533130  0.44817732     0.18400
N2378       N  0.64847668  0.57850086  0.41356650    -0.88300
H2379       H  0.74161424  0.72374799  0.37618204     0.35800
H2380       H  0.76969905  0.70840827  0.38102696     0.40900
H2381       H  0.62775419  0.57973740  0.42735888     0.40500
H2382       H  0.65640788  0.56524161  0.43247325     0.35400
C2383       C  0.88559300  0.79623454  0.56056876    -0.26400
C2384       C  0.85447223  0.76927313  0.56497017    -0.14400
C2385       C  0.83156234  0.77151190  0.59347636     0.36200
C2386       C  0.84097563  0.80061821  0.61717762    -0.25800
C2387       C  0.87244824  0.82770408  0.61243741    -0.15000
C2388       C  0.89465271  0.82533945  0.58309188     0.37300
N2389       N  0.92577711  0.85278397  0.57363608    -0.89300
H2390       H  0.90251994  0.79509034  0.53783516     0.18400
H2391       H  0.82360951  0.80213595  0.63935061     0.18400
N2392       N  0.79923207  0.74471752  0.59995034    -0.88300
H2393       H  0.94165396  0.85841374  0.59763571     0.35800
H2394       H  0.92136414  0.87339435  0.56752638     0.40900
H2395       H  0.79582059  0.72400361  0.58224210     0.40500
H2396       H  0.78156601  0.75283486  0.59151593     0.35400
C2397       C  0.69449458  0.54177560  0.88576702    -0.26400
C2398       C  0.66356080  0.53904072  0.90032609    -0.14400
C2399       C  0.66188264  0.55477095  0.93630539     0.36200
C2400       C  0.69125071  0.57497573  0.95577700    -0.25800
C2401       C  0.72238506  0.57948615  0.94006319    -0.15000
C2402       C  0.72408960  0.56183294  0.90554115     0.37300
N2403       N  0.75583815  0.56601022  0.88946315    -0.89300
H2404       H  0.69557421  0.52917275  0.85828167     0.18400
H2405       H  0.68983648  0.58834549  0.98247213     0.18400
N2406       N  0.63036104  0.55058478  0.95277752    -0.88300
H2407       H  0.75273587  0.55182554  0.86345494     0.35800
H2408       H  0.76654318  0.55643944  0.90989102     0.40900
H2409       H  0.62792240  0.54064341  0.98103151     0.40500
H2410       H  0.63052802  0.57404065  0.95591746     0.35400
C2411       C  0.70100449  0.64172397  0.04701839    -0.26400
C2412       C  0.73186970  0.65047881  0.06478065    -0.14400
C2413       C  0.73304411  0.64809556  0.10639586     0.36200
C2414       C  0.70335296  0.63789309  0.12902518    -0.25800
C2415       C  0.67252313  0.62928350  0.11099353    -0.15000
C2416       C  0.67141743  0.63021818  0.06950515     0.37300
N2417       N  0.64013101  0.61809234  0.04996307    -0.89300
H2418       H  0.69966057  0.64240125  0.01506984     0.18400
H2419       H  0.70433452  0.63671696  0.16094958     0.18400
N2420       N  0.76366451  0.65656639  0.12671584    -0.88300
H2421       H  0.63827529  0.59833553  0.03126333     0.35800
H2422       H  0.64025158  0.63703589  0.03226945     0.40900
H2423       H  0.78413486  0.66530460  0.10728267     0.40500
H2424       H  0.76250983  0.63484024  0.13910561     0.35400
C2425       C  0.96347521  0.64667522  0.92856393    -0.26400
C2426       C  0.95655135  0.64577896  0.88831523    -0.14400
C2427       C  0.93340773  0.65733242  0.87611599     0.36200
C2428       C  0.91735469  0.66925252  0.90480596    -0.25800
C2429       C  0.92442958  0.67030125  0.94541237    -0.15000
C2430       C  0.94831947  0.65922991  0.95696081     0.37300
N2431       N  0.95730664  0.66030098  0.99757601    -0.89300
H2432       H  0.98109735  0.63767355  0.93813622     0.18400
H2433       H  0.89904871  0.67742266  0.89539046     0.18400
N2434       N  0.92635138  0.65690507  0.83478015    -0.88300
H2435       H  0.98296006  0.67479885  0.99962942     0.35800
H2436       H  0.95214700  0.63614923  0.00603049     0.40900
H2437       H  0.94821258  0.67319925  0.82046301     0.40500
H2438       H  0.90868482  0.66612546  0.83071750     0.35400
C2439       C  0.84932093  0.55197024  0.12727969    -0.26400
C2440       C  0.86569942  0.53524277  0.10702540    -0.14400
C2441       C  0.86741771  0.53570360  0.06538468     0.36200
C2442       C  0.85311744  0.55297209  0.04471359    -0.25800
C2443       C  0.83739502  0.57043528  0.06474416    -0.15000
C2444       C  0.83510387  0.56958703  0.10671179     0.37300
N2445       N  0.82057979  0.58786176  0.12952576    -0.89300
H2446       H  0.84806708  0.05170348  0.15958552     0.18400
H2447       H  0.85630726  0.55462205  0.01276689     0.18400
N2448       N  0.88511594  0.51996611  0.04403923    -0.88300
H2449       H  0.80025810  0.57063649  0.14539567     0.35800
H2450       H  0.81109995  0.60027660  0.11151129     0.40900
H2451       H  0.86884578  0.50302207  0.02377808     0.40500
H2452       H  0.90447353  0.53814396  0.02790623     0.35400
C2453       C  0.94980955  0.82324017  0.09436797    -0.26400
C2454       C  0.96964477  0.82024134  0.12416816    -0.14400
C2455       C  0.96804051  0.78893733  0.13245629     0.36200
C2456       C  0.94676976  0.76106803  0.11069381    -0.25800
C2457       C  0.92629228  0.76367999  0.08112540    -0.15000
C2458       C  0.92779343  0.79527880  0.07304740     0.37300
N2459       N  0.90623167  0.79882112  0.04446702    -0.89300
H2460       H  0.95084199  0.84746760  0.08860602     0.18400
H2461       H  0.94600496  0.73713362  0.11750725     0.18400
N2462       N  0.48708661  0.78518126  0.16384550    -0.88300
H2463       H  0.91093386  0.82377235  0.04178461     0.35800
H2464       H  0.88184932  0.78655132  0.05547195     0.40900
H2465       H  0.47054425  0.76874085  0.18434925     0.40500
H2466       H  0.50200644  0.77427327  0.15191621     0.35400
C2467       C  0.85942526  0.77659160  0.89018137    -0.26400
C2468       C  0.85059971  0.77675236  0.93024563    -0.14400
C2469       C  0.85159538  0.80618484  0.94821733     0.36200
C2470       C  0.86054081  0.83451240  0.92505902    -0.25800
C2471       C  0.86817936  0.83394881  0.88447905    -0.15000
C2472       C  0.86798342  0.80477626  0.86713360     0.37300
N2473       N  0.87537886  0.80336273  0.82576325    -0.89300
H2474       H  0.85889403  0.75412813  0.87641940     0.18400
H2475       H  0.86156697  0.85714661  0.93884059     0.18400
N2476       N  0.84489434  0.80864985  0.98976966    -0.88300
H2477       H  0.85480700  0.78426281  0.81260807     0.35800
H2478       H  0.89552746  0.79722965  0.82291496     0.40900
H2479       H  0.83974945  0.78659906  0.00438921     0.40500
H2480       H  0.82355797  0.81284684  0.99245524     0.35400
loop_ 
_geom_bond_atom_site_label_1 
_geom_bond_atom_site_label_2 
_geom_bond_distance 
_geom_bond_site_symmetry_2 
_ccdc_geom_bond_type 
O1           Ni7   1.897       .  S
O1           C22   1.261       .  A
O2          Ni25   1.887       .  S
O2           C11   1.266       .  A
O3           Ni7   1.885       .  S
O3          Ni25   1.879   1_554  S
O3          Ni19   1.918       .  S
O3           H26   0.966       .  S
C4           O21   1.281       .  A
C4           O13   1.280       .  A
C4          C541   1.470       .  S
O5          Ni24   1.949       .  S
O5           C11   1.278       .  A
O6          Ni24   1.908   1_554  S
O6            C8   1.271       .  A
Ni7          O10   1.901       .  S
Ni7          O12   1.905       .  S
C8           O18   1.275       .  A
C8          C552   1.477       .  S
O9          Ni25   1.946   1_554  S
O9           C15   1.285       .  A
O10          C15   1.276       .  A
C11         C608   1.467       .  S
O12          C14   1.263   1_554  A
O13         Ni24   1.931       .  S
C14          O20   1.269       .  A
C14         C569   1.494       .  S
C15         C597   1.487       .  S
H16          O17   0.968       .  S
O17         Ni25   1.905       .  S
O17         Ni19   1.905   1_556  S
O17         Ni24   1.887       .  S
O18         Ni19   1.941       .  S
Ni19         O23   1.938       .  S
Ni19         O21   1.921   1_554  S
O20         Ni25   1.935       .  S
C22          O23   1.276       .  A
C22         C583   1.470       .  S
O27         Ni33   1.944       .  S
O27          C48   1.278       .  A
O28         Ni51   1.939       .  S
O28          C37   1.275       .  A
O29         Ni33   1.888       .  S
O29         Ni51   1.907       .  S
O29         Ni45   1.904       .  S
O29          H52   0.969       .  S
C30          O47   1.283       .  A
C30          O39   1.277       .  A
C30         C485   1.480       .  S
O31         Ni50   1.893       .  S
O31          C37   1.260       .  A
O32         Ni50   1.902       .  S
O32          C34   1.263       .  A
Ni33         O36   1.930       .  S
Ni33         O38   1.921       .  S
C34          O44   1.270       .  A
C34         C471   1.493       .  S
O35         Ni51   1.925       .  S
O35          C41   1.282       .  A
O36          C41   1.280       .  A
C37         C454   1.468       .  S
O38          C40   1.271       .  A
O39         Ni50   1.902       .  S
C40          O46   1.276       .  A
C40         C524   1.484       .  S
C41         C496   1.473       .  S
H42          O43   0.964       .  S
O43         Ni51   1.920       .  S
O43         Ni45   1.880       .  S
O43         Ni50   1.884       .  S
O44         Ni45   1.936       .  S
Ni45         O49   1.889       .  S
Ni45         O47   1.940       .  S
O46         Ni51   1.939       .  S
C48          O49   1.267       .  A
C48         C513   1.483       .  S
O53         Ni61   1.965       .  S
O53          C63   1.292       .  A
O54        Ni681   1.987       .  S
O54          C64   1.297       .  A
O55         Ni61   1.991       .  S
O55          C65   1.296       .  A
O56        Ni681   1.970       .  S
O56          C66   1.287       .  A
O57        Ni682   1.907       .  S
O57          C66   1.266       .  A
O58         Ni62   1.855       .  S
O58          C65   1.251       .  A
O59        Ni682   1.846       .  S
O59          C64   1.241       .  A
O60         Ni62   1.911       .  S
O60          C63   1.269       .  A
Ni61        O674   1.986   1_545  S
Ni61        O676   1.970   1_545  S
Ni61        Ni62   2.344       .  S
Ni62        O677   1.907   1_545  S
Ni62        O679   1.846   1_545  S
C63          C99   1.531       .  S
C64         C114   1.492       .  S
C65         C139   1.507       .  S
C66         C122   1.545       .  S
O67         Ni75   1.982       .  S
O67          C77   1.294       .  A
O68         Ni75   1.981       .  S
O68          C78   1.294       .  A
O69         Ni75   1.951       .  S
O69          C79   1.291       .  A
O70         Ni75   1.949       .  S
O70          C80   1.291       .  A
O71         Ni76   1.893       .  S
O71          C80   1.264       .  A
O72         Ni76   1.892       .  S
O72          C79   1.263       .  A
O73         Ni76   1.867       .  S
O73          C78   1.251       .  A
O74         Ni76   1.869       .  S
O74          C77   1.252       .  A
Ni75        Ni76   2.294       .  S
C77         C106   1.521       .  S
C78         C138   1.519       .  S
C79         C131   1.492       .  S
C80          C98   1.492       .  S
O81         Ni89   1.971       .  S
O81          C91   1.292       .  A
O82       Ni1329   1.992       .  S
O82          C92   1.297       .  A
O83         Ni89   1.997       .  S
O83          C93   1.298       .  A
O84       Ni1329   1.974       .  S
O84          C94   1.289       .  A
O85       Ni1330   1.905       .  S
O85          C94   1.265       .  A
O86         Ni90   1.852       .  S
O86          C93   1.249       .  A
O87       Ni1330   1.849       .  S
O87          C92   1.242       .  A
O88         Ni90   1.912       .  S
O88          C91   1.269       .  A
Ni89       O1322   1.992   1_455  S
Ni89       O1324   1.974   1_455  S
Ni89        Ni90   2.343       .  S
Ni90       O1325   1.905   1_455  S
Ni90       O1327   1.849   1_455  S
C91         C130   1.534       .  S
C92         C123   1.497       .  S
C93         C107   1.509       .  S
C94         C115   1.545       .  S
C95         C457   1.473       .  S
C95         C100   1.406       .  A
C95        C1336   1.403       .  A
C96         C443   1.488       .  S
C96          C97   1.394       .  A
C96        C1335   1.403   1_455  A
C97          C98   1.405       .  A
C97         H102   1.085       .  S
C98        C1339   1.460   1_455  A
C99         C100   1.412       .  A
C99        C1338   1.460       .  A
C100        H101   1.084       .  S
C103        C429   1.489       .  S
C103        C108   1.406       .  A
C103        C724   1.414       .  A
C104        C482   1.480       .  S
C104        C105   1.397       .  A
C104        C723   1.414   1_545  A
C105        C106   1.398       .  A
C105        H110   1.085       .  S
C106        C727   1.468   1_545  A
C107        C108   1.406       .  A
C107        C726   1.468       .  A
C108        H109   1.084       .  S
C111        C611   1.486       .  S
C111        C112   1.423       .  A
C111        C116   1.413       .  A
C112        C415   1.507       .  S
C112        C113   1.406       .  A
C113        C114   1.398       .  A
C113        H118   1.084       .  S
C114        C115   1.464       .  A
C115        C116   1.405       .  A
C116        H117   1.084       .  S
C119        C527   1.497       .  S
C119        C120   1.418       .  A
C119        C124   1.403       .  A
C120        C401   1.492       .  S
C120        C121   1.413       .  A
C121        C122   1.409       .  A
C121        H126   1.084       .  S
C122        C123   1.466       .  A
C123        C124   1.400       .  A
C124        H125   1.084       .  S
C127        C538   1.482       .  S
C127        C132   1.393       .  A
C127        C748   1.402   1_545  A
C128        C387   1.485       .  S
C128        C129   1.412       .  A
C128        C747   1.402       .  A
C129        C130   1.418       .  A
C129        H134   1.083       .  S
C130        C751   1.461       .  A
C131        C132   1.402       .  A
C131        C750   1.461   1_545  A
C132        H133   1.085       .  S
C135        C566   1.487       .  S
C135        C140   1.405       .  A
C135       C1376   1.413       .  A
C136        C370   1.480       .  S
C136        C137   1.396       .  A
C136       C1375   1.413   1_455  A
C137        C138   1.396       .  A
C137        H142   1.085       .  S
C138       C1379   1.467   1_455  A
C139        C140   1.407       .  A
C139       C1378   1.467       .  A
C140        H141   1.084       .  S
O143       Ni149   1.881       .  S
O143        C164   1.255       .  A
O144       Ni167   1.895       .  S
O144        C153   1.268       .  A
O145       Ni149   1.878       .  S
O145       Ni167   1.875       .  S
O145       Ni161   1.922       .  S
O145        H168   0.963       .  S
C146        O163   1.281       .  A
C146        O155   1.280       .  A
C146        C440   1.467       .  S
O147       Ni166   1.946       .  S
O147        C153   1.278       .  A
O148       Ni166   1.911       .  S
O148        C150   1.272       .  A
Ni149       O152   1.896       .  S
Ni149       O154   1.903       .  S
C150        O160   1.276       .  A
C150        C331   1.482       .  S
O151       Ni167   1.939       .  S
O151        C157   1.285       .  A
O152        C157   1.277       .  A
C153        C398   1.472       .  S
O154        C156   1.263       .  A
O155       Ni166   1.927       .  S
C156        O162   1.268       .  A
C156        C426   1.496       .  S
C157        C359   1.475       .  S
H158        O159   0.967       .  S
O159       Ni167   1.903       .  S
O159       Ni161   1.906       .  S
O159       Ni166   1.881       .  S
O160       Ni161   1.936       .  S
Ni161       O165   1.947       .  S
Ni161       O163   1.921       .  S
O162       Ni167   1.933       .  S
C164        O165   1.276       .  A
C164        C342   1.471       .  S
O169       Ni175   1.943       .  S
O169        C190   1.278       .  A
O170       Ni193   1.939       .  S
O170        C179   1.275       .  A
O171       Ni175   1.891       .  S
O171       Ni193   1.900   1_554  S
O171       Ni187   1.907       .  S
O171        H194   0.966       .  S
C172        O189   1.284       .  A
C172        O181   1.276       .  A
C172        C373   1.484       .  S
O173       Ni192   1.901       .  S
O173        C179   1.262       .  A
O174       Ni192   1.900       .  S
O174        C176   1.264   1_556  A
Ni175       O178   1.936       .  S
Ni175       O180   1.925   1_554  S
C176        O186   1.270       .  A
C176        C300   1.487       .  S
O177       Ni193   1.934   1_554  S
O177        C183   1.287       .  A
O178        C183   1.282       .  A
C179        C384   1.468       .  S
O180        C182   1.272       .  A
O181       Ni192   1.906       .  S
C182        O188   1.270       .  A
C182        C412   1.487       .  S
C183        C314   1.487       .  S
H184        O185   0.967       .  S
O185       Ni193   1.923       .  S
O185       Ni187   1.878   1_556  S
O185       Ni192   1.883       .  S
O186       Ni187   1.934       .  S
Ni187       O191   1.892       .  S
Ni187       O189   1.940   1_554  S
O188       Ni193   1.918       .  S
C190        O191   1.268       .  A
C190        C289   1.478       .  S
O195       Ni203   1.908       .  S
O195        C205   1.267       .  A
O196      Ni1443   1.845   1_455  S
O196        C206   1.241       .  A
O197       Ni203   1.858       .  S
O197        C207   1.250       .  A
O198      Ni1443   1.912   1_455  S
O198        C208   1.268       .  A
O199      Ni1444   1.970   1_455  S
O199        C208   1.288       .  A
O200       Ni204   1.987       .  S
O200        C207   1.295       .  A
O201      Ni1444   1.989   1_455  S
O201        C206   1.297       .  A
O202       Ni204   1.972       .  S
O202        C205   1.292       .  A
Ni203      O1436   1.845       .  S
Ni203      O1438   1.912       .  S
Ni203      Ni204   2.345       .  S
Ni204      O1439   1.970       .  S
Ni204      O1441   1.989       .  S
C205        C248   1.533       .  S
C206        C256   1.492       .  S
C207        C226   1.504       .  S
C208        C264   1.548       .  S
O209       Ni217   1.953       .  S
O209        C219   1.292       .  A
O210       Ni217   1.957       .  S
O210        C220   1.292       .  A
O211       Ni217   1.977       .  S
O211        C221   1.292       .  A
O212       Ni217   1.976       .  S
O212        C222   1.292       .  A
O213       Ni218   1.866       .  S
O213        C222   1.251       .  A
O214       Ni218   1.866       .  S
O214        C221   1.252       .  A
O215       Ni218   1.895       .  S
O215        C220   1.264       .  A
O216       Ni218   1.892       .  S
O216        C219   1.263       .  A
Ni217      Ni218   2.298       .  S
C219        C272   1.494       .  S
C220        C249   1.498       .  S
C221        C280   1.518       .  S
C222        C227   1.517       .  S
C223        C356   1.478       .  S
C223        C228   1.396       .  A
C223        C844   1.415       .  A
C224        C468   1.489       .  S
C224        C225   1.405       .  A
C224        C843   1.415   1_545  A
C225        C226   1.404       .  A
C225        H230   1.084       .  S
C226        C847   1.465   1_545  A
C227        C228   1.394       .  A
C227        C846   1.465       .  A
C228        H229   1.085       .  S
O231       Ni239   1.902       .  S
O231        C241   1.266       .  A
O232       Ni859   1.837   1_545  S
O232        C242   1.238       .  A
O233       Ni239   1.856       .  S
O233        C243   1.249       .  A
O234       Ni859   1.910   1_545  S
O234        C244   1.266       .  A
O235       Ni860   1.971   1_545  S
O235        C244   1.288       .  A
O236       Ni240   1.993       .  S
O236        C243   1.296       .  A
O237       Ni860   1.985   1_545  S
O237        C242   1.297       .  A
O238       Ni240   1.963       .  S
O238        C241   1.292       .  A
Ni239       O852   1.836       .  S
Ni239       O854   1.910       .  S
Ni239      Ni240   2.345       .  S
Ni240       O855   1.973       .  S
Ni240       O857   1.985       .  S
C241        C273   1.526       .  S
C242        C265   1.484       .  S
C243        C281   1.510       .  S
C244        C257   1.547       .  S
C245        C317   1.491       .  S
C245        C250   1.397       .  A
C245        C866   1.409       .  A
C246        C580   1.487       .  S
C246        C247   1.413       .  A
C246        C865   1.408   1_545  A
C247        C248   1.418       .  A
C247        H252   1.084       .  S
C248        C869   1.461   1_545  A
C249        C250   1.403       .  A
C249        C868   1.461       .  A
C250        H251   1.085       .  S
C253        C510   1.494       .  S
C253        C254   1.419       .  A
C253        C258   1.410       .  A
C254        C328   1.496       .  S
C254        C255   1.401       .  A
C255        C256   1.403       .  A
C255        H260   1.085       .  S
C256        C257   1.467       .  A
C257        C258   1.408       .  A
C258        H259   1.083       .  S
C261        C555   1.491       .  S
C261        C262   1.417       .  A
C261        C266   1.396       .  A
C262        C286   1.488       .  S
C262        C263   1.409       .  A
C263        C264   1.407       .  A
C263        H268   1.084       .  S
C264        C265   1.468       .  A
C265        C266   1.399       .  A
C266        H267   1.085       .  S
C269        C345   1.473       .  S
C269        C274   1.404       .  A
C269       C1510   1.405   1_455  A
C270        C499   1.488       .  S
C270        C271   1.394       .  A
C270       C1509   1.405       .  A
C271        C272   1.403       .  A
C271        H276   1.085       .  S
C272       C1513   1.461       .  A
C273        C274   1.411       .  A
C273       C1512   1.461   1_455  A
C274        H275   1.084       .  S
C277        C303   1.477       .  S
C277        C282   1.404       .  A
C277       C1518   1.409   1_455  A
C278        C594   1.481       .  S
C278        C279   1.395       .  A
C278       C1517   1.409       .  A
C279        C280   1.399       .  A
C279        H284   1.084       .  S
C280       C1521   1.468       .  A
C281        C282   1.405       .  A
C281       C1520   1.468   1_455  A
C282        H283   1.084       .  S
C285        C286   1.403       .  A
C285        C290   1.400       .  A
C285        H292   1.084       .  S
C286        C287   1.420       .  A
C287        C288   1.401       .  A
C287        N294   1.441       .  S
C288        C289   1.403       .  A
C288        H293   1.085       .  S
C289        C290   1.420       .  A
C290        N291   1.440       .  S
N291        H295   1.046       .  S
N291        H296   1.040       .  S
N294        H297   1.041       .  S
N294        H298   1.046       .  S
C299        C300   1.408       .  A
C299        C304   1.393       .  A
C299        H306   1.084       .  S
C300        C301   1.414       .  A
C301        C302   1.410       .  A
C301        N308   1.437       .  S
C302        C303   1.403       .  A
C302        H307   1.084       .  S
C303        C304   1.413       .  A
C304        N305   1.441       .  S
N305        H309   1.046       .  S
N305        H310   1.042       .  S
N308        H311   1.046       .  S
N308        H312   1.046       .  S
C313        C314   1.405       .  A
C313        C318   1.409       .  A
C313        H320   1.084       .  S
C314        C315   1.425       .  A
C315        C316   1.399       .  A
C315        N322   1.438       .  S
C316        C317   1.398       .  A
C316        H321   1.084       .  S
C317        C318   1.409       .  A
C318        N319   1.431       .  S
N319        H323   1.046       .  S
N319        H324   1.046       .  S
N322        H325   1.038   1_554  S
N322        H326   1.045       .  S
C327        C328   1.407       .  A
C327        C332   1.408       .  A
C327        H334   1.084       .  S
C328        C329   1.417       .  A
C329        C330   1.400       .  A
C329        N336   1.439       .  S
C330        C331   1.404       .  A
C330        H335   1.085       .  S
C331        C332   1.417       .  A
C332        N333   1.439       .  S
N333        H337   1.045       .  S
N333        H338   1.042       .  S
N336        H339   1.042       .  S
N336        H340   1.046       .  S
C341        C342   1.406       .  A
C341        C346   1.413       .  A
C341        H348   1.084       .  S
C342        C343   1.420       .  A
C343        C344   1.385       .  A
C343        N350   1.436       .  S
C344        C345   1.392       .  A
C344        H349   1.085       .  S
C345        C346   1.411       .  A
C346       N1587   1.437       .  S
N347       C1586   1.437       .  S
N347        H351   1.046       .  S
N347        H352   1.046       .  S
N350        H353   1.043       .  S
N350        H354   1.045       .  S
C355        C356   1.403       .  A
C355        C360   1.399       .  A
C355        H362   1.084       .  S
C356        C357   1.407       .  A
C357        C358   1.402       .  A
C357        N984   1.438       .  S
C358        C359   1.408       .  A
C358        H363   1.084       .  S
C359        C360   1.411       .  A
C360        N361   1.438       .  S
N361        H365   1.046       .  S
N361        H366   1.046       .  S
N364        C977   1.438       .  S
N364        H367   1.045       .  S
N364        H368   1.045       .  S
C369        C370   1.399       .  A
C369        C374   1.398       .  A
C369        H376   1.084       .  S
C370        C371   1.410       .  A
C371        C372   1.402       .  A
C371        N378   1.439       .  S
C372        C373   1.406       .  A
C372        H377   1.084       .  S
C373        C374   1.422       .  A
C374        N375   1.433       .  S
N375        H379   1.044       .  S
N375        H380   1.046       .  S
N378        H381   1.045       .  S
N378        H382   1.046       .  S
C383        C384   1.403       .  A
C383        C388   1.407       .  A
C383        H390   1.084       .  S
C384        C385   1.406       .  A
C385        C386   1.398       .  A
C385        N392   1.433   1_556  S
C386        C387   1.403       .  A
C386        H391   1.084       .  S
C387        C388   1.419       .  A
C388       N1009   1.438       .  S
N389       C1008   1.438       .  S
N389        H393   1.045       .  S
N389        H394   1.043       .  S
N392        H395   1.046       .  S
N392        H396   1.046       .  S
C397        C398   1.401       .  A
C397        C402   1.401       .  A
C397        H404   1.084       .  S
C398        C399   1.416       .  A
C399        C400   1.405       .  A
C399        N406   1.438       .  S
C400        C401   1.407       .  A
C400        H405   1.083       .  S
C401        C402   1.410       .  A
C402        N403   1.432       .  S
N403        H407   1.045       .  S
N403        H408   1.046       .  S
N406        H409   1.043       .  S
N406        H410   1.046       .  S
C411        C412   1.405       .  A
C411        C416   1.412       .  A
C411        H418   1.084       .  S
C412        C413   1.416       .  A
C413        C414   1.400       .  A
C413        N420   1.440       .  S
C414        C415   1.405       .  A
C414        H419   1.083       .  S
C415        C416   1.417       .  A
C416        N417   1.431       .  S
N417        H421   1.045       .  S
N417        H422   1.046       .  S
N420        H423   1.046       .  S
N420        H424   1.045       .  S
C425        C426   1.410       .  A
C425        C430   1.399       .  A
C425        H432   1.084       .  S
C426        C427   1.418       .  A
C427        C428   1.410       .  A
C427        N434   1.438       .  S
C428        C429   1.403       .  A
C428        H433   1.084       .  S
C429        C430   1.416       .  A
C430        N431   1.439       .  S
N431        H435   1.046       .  S
N431        H436   1.042       .  S
N434        H437   1.045       .  S
N434        H438   1.046       .  S
C439        C440   1.401       .  A
C439        C444   1.402       .  A
C439        H446   1.084       .  S
C440        C441   1.410       .  A
C441        C442   1.400       .  A
C441        N448   1.433       .  S
C442        C443   1.405       .  A
C442        H447   1.082       .  S
C443        C444   1.408       .  A
C444        N445   1.432       .  S
N445        H449   1.046       .  S
N445        H450   1.046       .  S
N448        H451   1.045       .  S
N448        H452   1.046       .  S
C453        C454   1.403       .  A
C453        C458   1.411       .  A
C453        H460   1.084       .  S
C454        C455   1.410       .  A
C455        C456   1.393       .  A
C455        N462   1.434       .  S
C456        C457   1.395       .  A
C456       H1701   1.084       .  S
C457        C458   1.411       .  A
C458        N459   1.437       .  S
N459        H463   1.045       .  S
N459        H464   1.044       .  S
H461       C1696   1.084       .  S
N462        H465   1.046       .  S
N462        H466   1.046       .  S
C467        C468   1.401       .  A
C467        C472   1.399       .  A
C467        H474   1.083       .  S
C468        C469   1.418       .  A
C469        C470   1.406       .  A
C469        N476   1.438       .  S
C470        C471   1.408       .  A
C470        H475   1.083       .  S
C471        C472   1.418       .  A
C472        N473   1.438       .  S
N473        H477   1.046       .  S
N473        H478   1.046       .  S
N476        H479   1.043       .  S
N476        H480   1.045       .  S
C481        C482   1.405       .  A
C481        C486   1.402       .  A
C481        H488   1.084       .  S
C482        C483   1.404       .  A
C483        C484   1.399       .  A
C483        N490   1.432       .  S
C484        C485   1.407       .  A
C484        H489   1.084       .  S
C485        C486   1.411       .  A
C486        N487   1.433       .  S
N487        H491   1.046       .  S
N487        H492   1.046       .  S
N490        H493   1.045   1_545  S
N490        H494   1.046       .  S
C495        C496   1.405       .  A
C495        C500   1.404       .  A
C495        H502   1.084       .  S
C496        C497   1.415       .  A
C497        C498   1.401       .  A
C497        N504   1.436       .  S
C498        C499   1.403       .  A
C498        H503   1.080       .  S
C499        C500   1.408       .  A
C500        N501   1.438       .  S
N501        H505   1.045       .  S
N501        H506   1.045       .  S
N504        H507   1.043       .  S
N504        H508   1.045       .  S
C509        C510   1.406       .  A
C509        C514   1.407       .  A
C509        H516   1.083       .  S
C510        C511   1.414       .  A
C511        C512   1.404       .  A
C511        N518   1.439       .  S
C512        C513   1.404       .  A
C512        H517   1.084       .  S
C513        C514   1.413       .  A
C514        N515   1.438       .  S
N515        H519   1.046       .  S
N515        H520   1.046       .  S
N518        H521   1.044       .  S
N518        H522   1.046       .  S
C523        C524   1.398       .  A
C523        C528   1.394       .  A
C523        H530   1.076       .  S
C524        C525   1.417       .  A
C525        C526   1.413       .  A
C525        N532   1.437       .  S
C526        C527   1.410       .  A
C526        H531   1.084       .  S
C527        C528   1.415       .  A
C528        N529   1.434       .  S
N529        H533   1.043       .  S
N529        H534   1.045       .  S
N532        H535   1.044       .  S
N532        H536   1.045       .  S
C537        C538   1.405       .  A
C537        C542   1.409       .  A
C537        H544   1.083       .  S
C538        C539   1.404       .  A
C539        C540   1.399       .  A
C539        N546   1.432       .  S
C540        C541   1.403       .  A
C540        H545   1.083       .  S
C541        C542   1.408       .  A
C542        N543   1.437       .  S
N543        H547   1.046       .  S
N543        H548   1.045       .  S
N546        H549   1.046       .  S
N546        H550   1.045       .  S
C551        C552   1.404       .  A
C551        C556   1.400       .  A
C551        H558   1.084       .  S
C552        C553   1.416       .  A
C553        C554   1.408       .  A
C553        N560   1.437       .  S
C554        C555   1.407       .  A
C554        H559   1.084       .  S
C555        C556   1.406       .  A
C556        N557   1.432       .  S
N557        H561   1.046       .  S
N557        H562   1.045       .  S
N560        H563   1.043       .  S
N560        H564   1.046       .  S
C565        C566   1.398       .  A
C565        C570   1.397       .  A
C565        H572   1.083       .  S
C566        C567   1.410       .  A
C567        C568   1.413       .  A
C567        N574   1.437       .  S
C568        C569   1.411       .  A
C568        H573   1.083       .  S
C569        C570   1.418       .  A
C570        N571   1.433       .  S
N571        H575   1.046       .  S
N571        H576   1.046   1_556  S
N574        H577   1.045       .  S
N574        H578   1.046       .  S
C579        C580   1.403       .  A
C579        C584   1.406       .  A
C579       H1206   1.084       .  S
C580        C581   1.409       .  A
C581        C582   1.402       .  A
C581        N588   1.438       .  S
C582        C583   1.404       .  A
C582        H587   1.084       .  S
C583        C584   1.418       .  A
C584        N585   1.439       .  S
N585        H589   1.045       .  S
N585        H590   1.043       .  S
H586       C1199   1.084       .  S
N588        H591   1.046       .  S
N588        H592   1.045       .  S
C593        C594   1.402       .  A
C593        C598   1.405       .  A
C593        H600   1.084       .  S
C594        C595   1.403       .  A
C595        C596   1.401       .  A
C595       N1842   1.432       .  S
C596        C597   1.410       .  A
C596        H601   1.084       .  S
C597        C598   1.415       .  A
C598        N599   1.438       .  S
N599        H603   1.046       .  S
N599        H604   1.046       .  S
N602       C1835   1.432       .  S
N602        H605   1.046       .  S
N602        H606   1.046   1_655  S
C607        C608   1.399       .  A
C607        C612   1.398       .  A
C607        H614   1.084       .  S
C608        C609   1.416       .  A
C609        C610   1.403       .  A
C609        N616   1.438       .  S
C610        C611   1.406       .  A
C610        H615   1.084       .  S
C611        C612   1.410       .  A
C612        N613   1.433       .  S
N613        H617   1.045       .  S
N613        H618   1.046       .  S
N616        H619   1.043   1_556  S
N616        H620   1.045       .  S
O621       Ni627   1.897       .  S
O621        C642   1.261       .  A
O622       Ni645   1.887       .  S
O622        C631   1.266       .  A
O623       Ni627   1.884       .  S
O623       Ni645   1.879   1_554  S
O623       Ni639   1.917       .  S
O623        H646   0.965       .  S
C624        O641   1.282       .  A
C624        O633   1.280       .  A
C624       C1161   1.470       .  S
O625       Ni644   1.947       .  S
O625        C631   1.278       .  A
O626       Ni644   1.908   1_554  S
O626        C628   1.271       .  A
Ni627       O630   1.899       .  S
Ni627       O632   1.904       .  S
C628        O638   1.276       .  A
C628       C1172   1.478       .  S
O629       Ni645   1.947   1_554  S
O629        C635   1.285       .  A
O630        C635   1.276       .  A
C631       C1228   1.465       .  S
O632        C634   1.262   1_554  A
O633       Ni644   1.930       .  S
C634        O640   1.269       .  A
C634       C1189   1.494       .  S
C635       C1217   1.486       .  S
H636        O637   0.967       .  S
O637       Ni645   1.905       .  S
O637       Ni639   1.904   1_556  S
O637       Ni644   1.887       .  S
O638       Ni639   1.942       .  S
Ni639       O643   1.938       .  S
Ni639       O641   1.922   1_554  S
O640       Ni645   1.935       .  S
C642        O643   1.277       .  A
C642       C1203   1.471       .  S
O647       Ni653   1.944       .  S
O647        C668   1.278       .  A
O648       Ni671   1.939       .  S
O648        C657   1.274       .  A
O649       Ni653   1.888       .  S
O649       Ni671   1.907       .  S
O649       Ni665   1.904       .  S
O649        H672   0.969       .  S
C650        O667   1.284       .  A
C650        O659   1.276       .  A
C650       C1105   1.479       .  S
O651       Ni670   1.890       .  S
O651        C657   1.260       .  A
O652       Ni670   1.904       .  S
O652        C654   1.263       .  A
Ni653       O656   1.929       .  S
Ni653       O658   1.921       .  S
C654        O664   1.270       .  A
C654       C1091   1.495       .  S
O655       Ni671   1.925       .  S
O655        C661   1.282       .  A
O656        C661   1.280       .  A
C657       C1074   1.467       .  S
O658        C660   1.271       .  A
O659       Ni670   1.899       .  S
C660        O666   1.275       .  A
C660       C1144   1.482       .  S
C661       C1116   1.473       .  S
H662        O663   0.964       .  S
O663       Ni671   1.919       .  S
O663       Ni665   1.879       .  S
O663       Ni670   1.882       .  S
O664       Ni665   1.937       .  S
Ni665       O669   1.890       .  S
Ni665       O667   1.941       .  S
O666       Ni671   1.936       .  S
C668        O669   1.268       .  A
C668       C1133   1.483       .  S
O673       Ni681   1.966       .  S
O673        C683   1.292       .  A
O674        C684   1.296       .  A
O675       Ni681   1.991       .  S
O675        C685   1.296       .  A
O676        C686   1.288       .  A
O677        C686   1.266       .  A
O678       Ni682   1.855       .  S
O678        C685   1.251       .  A
O679        C684   1.241       .  A
O680       Ni682   1.911       .  S
O680        C683   1.269       .  A
Ni681      Ni682   2.344       .  S
C683        C719   1.531       .  S
C684        C734   1.491       .  S
C685        C759   1.507       .  S
C686        C742   1.545       .  S
O687       Ni695   1.982       .  S
O687        C697   1.294       .  A
O688       Ni695   1.981       .  S
O688        C698   1.294       .  A
O689       Ni695   1.951       .  S
O689        C699   1.291       .  A
O690       Ni695   1.950       .  S
O690        C700   1.291       .  A
O691       Ni696   1.893       .  S
O691        C700   1.264       .  A
O692       Ni696   1.893       .  S
O692        C699   1.264       .  A
O693       Ni696   1.867       .  S
O693        C698   1.251       .  A
O694       Ni696   1.869       .  S
O694        C697   1.251       .  A
Ni695      Ni696   2.294       .  S
C697        C726   1.521       .  S
C698        C758   1.519       .  S
C699        C751   1.493       .  S
C700        C718   1.492       .  S
O701       Ni709   1.971       .  S
O701        C711   1.292       .  A
O702      Ni1949   1.991       .  S
O702        C712   1.297       .  A
O703       Ni709   1.997       .  S
O703        C713   1.298       .  A
O704      Ni1949   1.974       .  S
O704        C714   1.289       .  A
O705      Ni1950   1.904       .  S
O705        C714   1.265       .  A
O706       Ni710   1.851       .  S
O706        C713   1.249       .  A
O707      Ni1950   1.849       .  S
O707        C712   1.241       .  A
O708       Ni710   1.913       .  S
O708        C711   1.270       .  A
Ni709      O1942   1.991   1_455  S
Ni709      O1944   1.974   1_455  S
Ni709      Ni710   2.343       .  S
Ni710      O1945   1.904   1_455  S
Ni710      O1947   1.849   1_455  S
C711        C750   1.535       .  S
C712        C743   1.497       .  S
C713        C727   1.508       .  S
C714        C735   1.545       .  S
C715       C1077   1.472       .  S
C715       C1956   1.403       .  A
C715        C720   1.406       .  A
C716       C1063   1.489       .  S
C716       C1955   1.403   1_455  A
C716        C717   1.394       .  A
C717        C718   1.406       .  A
C717        H722   1.085       .  S
C718       C1959   1.461   1_455  A
C719       C1958   1.461       .  A
C719        C720   1.412       .  A
C720        H721   1.084       .  S
C723       C1049   1.488       .  S
C723        C728   1.406       .  A
C724       C1102   1.479       .  S
C724        C725   1.397       .  A
C725        C726   1.397       .  A
C725        H730   1.085       .  S
C727        C728   1.405       .  A
C728        H729   1.084       .  S
C731       C1231   1.484       .  S
C731        C732   1.421       .  A
C731        C736   1.412       .  A
C732       C1035   1.506       .  S
C732        C733   1.405       .  A
C733        C734   1.399       .  A
C733        H738   1.084       .  S
C734        C735   1.464       .  A
C735        C736   1.404       .  A
C736        H737   1.084       .  S
C739       C1147   1.496       .  S
C739        C740   1.418       .  A
C739        C744   1.403       .  A
C740       C1021   1.492       .  S
C740        C741   1.413       .  A
C741        C742   1.409       .  A
C741        H746   1.084       .  S
C742        C743   1.466       .  A
C743        C744   1.400       .  A
C744        H745   1.084       .  S
C747       C1158   1.483       .  S
C747        C752   1.393       .  A
C748       C1007   1.485       .  S
C748        C749   1.412       .  A
C749        C750   1.418       .  A
C749        H754   1.083       .  S
C751        C752   1.403       .  A
C752        H753   1.085       .  S
C755       C1186   1.486       .  S
C755       C1996   1.412       .  A
C755        C760   1.405       .  A
C756        C990   1.480       .  S
C756       C1995   1.412   1_455  A
C756        C757   1.396       .  A
C757        C758   1.396       .  A
C757        H762   1.085       .  S
C758       C1999   1.468   1_455  A
C759       C1998   1.468       .  A
C759        C760   1.407       .  A
C760        H761   1.084       .  S
O763       Ni769   1.882       .  S
O763        C784   1.255       .  A
O764       Ni787   1.897       .  S
O764        C773   1.268       .  A
O765       Ni769   1.880       .  S
O765       Ni787   1.876       .  S
O765       Ni781   1.922       .  S
O765        H788   0.963       .  S
C766        O783   1.281       .  A
C766        O775   1.280       .  A
C766       C1060   1.467       .  S
O767       Ni786   1.946       .  S
O767        C773   1.278       .  A
O768       Ni786   1.911       .  S
O768        C770   1.272       .  A
Ni769       O772   1.897       .  S
Ni769       O774   1.903       .  S
C770        O780   1.275       .  A
C770        C951   1.481       .  S
O771       Ni787   1.940       .  S
O771        C777   1.285       .  A
O772        C777   1.277       .  A
C773       C1018   1.472       .  S
O774        C776   1.263       .  A
O775       Ni786   1.927       .  S
C776        O782   1.268       .  A
C776       C1046   1.495       .  S
C777        C979   1.476       .  S
H778        O779   0.967       .  S
O779       Ni787   1.904       .  S
O779       Ni781   1.906       .  S
O779       Ni786   1.882       .  S
O780       Ni781   1.935       .  S
Ni781       O785   1.944       .  S
Ni781       O783   1.921       .  S
O782       Ni787   1.932       .  S
C784        O785   1.275       .  A
C784        C962   1.468       .  S
O789       Ni795   1.944       .  S
O789        C810   1.278       .  A
O790       Ni813   1.941       .  S
O790        C799   1.276       .  A
O791       Ni795   1.890       .  S
O791       Ni813   1.901   1_554  S
O791       Ni807   1.906       .  S
O791        H814   0.966       .  S
C792        O809   1.284       .  A
C792        O801   1.276       .  A
C792        C993   1.484       .  S
O793       Ni812   1.901       .  S
O793        C799   1.262       .  A
O794       Ni812   1.900       .  S
O794        C796   1.264   1_556  A
Ni795       O798   1.935       .  S
Ni795       O800   1.926   1_554  S
C796        O806   1.270       .  A
C796        C920   1.487       .  S
O797       Ni813   1.933   1_554  S
O797        C803   1.287       .  A
O798        C803   1.282       .  A
C799       C1004   1.470       .  S
O800        C802   1.273       .  A
O801       Ni812   1.906       .  S
C802        O808   1.270       .  A
C802       C1032   1.488       .  S
C803        C934   1.486       .  S
H804        O805   0.967       .  S
O805       Ni813   1.923       .  S
O805       Ni807   1.879   1_556  S
O805       Ni812   1.883       .  S
O806       Ni807   1.933       .  S
Ni807       O811   1.891       .  S
Ni807       O809   1.939   1_554  S
O808       Ni813   1.920       .  S
C810        O811   1.268       .  A
C810        C909   1.478       .  S
O815       Ni823   1.908       .  S
O815        C825   1.267       .  A
O816      Ni2063   1.846   1_455  S
O816        C826   1.242       .  A
O817       Ni823   1.859       .  S
O817        C827   1.250       .  A
O818      Ni2063   1.913   1_455  S
O818        C828   1.268       .  A
O819      Ni2064   1.970   1_455  S
O819        C828   1.289       .  A
O820       Ni824   1.987       .  S
O820        C827   1.295       .  A
O821      Ni2064   1.988   1_455  S
O821        C826   1.297       .  A
O822       Ni824   1.973       .  S
O822        C825   1.292       .  A
Ni823      O2056   1.846       .  S
Ni823      O2058   1.913       .  S
Ni823      Ni824   2.345       .  S
Ni824      O2059   1.970       .  S
Ni824      O2061   1.988       .  S
C825        C868   1.535       .  S
C826        C876   1.491       .  S
C827        C846   1.504       .  S
C828        C884   1.548       .  S
O829       Ni837   1.954       .  S
O829        C839   1.292       .  A
O830       Ni837   1.957       .  S
O830        C840   1.292       .  A
O831       Ni837   1.976       .  S
O831        C841   1.292       .  A
O832       Ni837   1.975       .  S
O832        C842   1.292       .  A
O833       Ni838   1.864       .  S
O833        C842   1.251       .  A
O834       Ni838   1.865       .  S
O834        C841   1.252       .  A
O835       Ni838   1.896       .  S
O835        C840   1.264       .  A
O836       Ni838   1.893       .  S
O836        C839   1.263       .  A
Ni837      Ni838   2.298       .  S
C839        C892   1.494       .  S
C840        C869   1.500       .  S
C841        C900   1.517       .  S
C842        C847   1.515       .  S
C843        C976   1.479       .  S
C843        C848   1.395       .  A
C844       C1088   1.491       .  S
C844        C845   1.405       .  A
C845        C846   1.405       .  A
C845        H850   1.084       .  S
C847        C848   1.393       .  A
C848        H849   1.085       .  S
O851       Ni859   1.902       .  S
O851        C861   1.266       .  A
O852        C862   1.238       .  A
O853       Ni859   1.856       .  S
O853        C863   1.250       .  A
O854        C864   1.266       .  A
O855        C864   1.288       .  A
O856       Ni860   1.991       .  S
O856        C863   1.296       .  A
O857        C862   1.297       .  A
O858       Ni860   1.964       .  S
O858        C861   1.292       .  A
Ni859      Ni860   2.345       .  S
C861        C893   1.526       .  S
C862        C885   1.483       .  S
C863        C901   1.507       .  S
C864        C877   1.548       .  S
C865        C937   1.490       .  S
C865        C870   1.397       .  A
C866       C1200   1.487       .  S
C866        C867   1.414       .  A
C867        C868   1.418       .  A
C867        H872   1.084       .  S
C869        C870   1.403       .  A
C870        H871   1.085       .  S
C873       C1130   1.493       .  S
C873        C874   1.419       .  A
C873        C878   1.411       .  A
C874        C948   1.496       .  S
C874        C875   1.401       .  A
C875        C876   1.403       .  A
C875        H880   1.085       .  S
C876        C877   1.468       .  A
C877        C878   1.408       .  A
C878        H879   1.083       .  S
C881       C1175   1.491       .  S
C881        C882   1.417       .  A
C881        C886   1.396       .  A
C882        C906   1.488       .  S
C882        C883   1.409       .  A
C883        C884   1.406       .  A
C883        H888   1.084       .  S
C884        C885   1.469       .  A
C885        C886   1.399       .  A
C886        H887   1.085       .  S
C889        C965   1.472       .  S
C889       C2130   1.404   1_455  A
C889        C894   1.404       .  A
C890       C1119   1.489       .  S
C890       C2129   1.404       .  A
C890        C891   1.394       .  A
C891        C892   1.403       .  A
C891        H896   1.085       .  S
C892       C2133   1.461       .  A
C893       C2132   1.461   1_455  A
C893        C894   1.411       .  A
C894        H895   1.084       .  S
C897        C923   1.476       .  S
C897       C2138   1.409   1_455  A
C897        C902   1.403       .  A
C898       C1214   1.479       .  S
C898       C2137   1.409       .  A
C898        C899   1.394       .  A
C899        C900   1.398       .  A
C899        H904   1.084       .  S
C900       C2141   1.468       .  A
C901       C2140   1.468   1_455  A
C901        C902   1.404       .  A
C902        H903   1.084       .  S
C905        C906   1.403       .  A
C905        C910   1.400       .  A
C905        H912   1.084       .  S
C906        C907   1.420       .  A
C907        C908   1.401       .  A
C907        N914   1.441       .  S
C908        C909   1.404       .  A
C908        H913   1.085       .  S
C909        C910   1.419       .  A
C910        N911   1.440       .  S
N911        H915   1.046       .  S
N911        H916   1.041       .  S
N914        H917   1.041       .  S
N914        H918   1.046       .  S
C919        C920   1.408       .  A
C919        C924   1.393       .  A
C919        H926   1.084       .  S
C920        C921   1.414       .  A
C921        C922   1.410       .  A
C921        N928   1.437       .  S
C922        C923   1.403       .  A
C922        H927   1.084       .  S
C923        C924   1.412       .  A
C924        N925   1.441       .  S
N925        H929   1.046       .  S
N925        H930   1.042       .  S
N928        H931   1.046       .  S
N928        H932   1.046       .  S
C933        C934   1.406       .  A
C933        C938   1.409       .  A
C933        H940   1.084       .  S
C934        C935   1.425       .  A
C935        C936   1.398       .  A
C935        N942   1.438       .  S
C936        C937   1.398       .  A
C936        H941   1.084       .  S
C937        C938   1.409       .  A
C938        N939   1.431       .  S
N939        H943   1.046       .  S
N939        H944   1.046       .  S
N942        H945   1.038       .  S
N942        H946   1.046       .  S
C947        C948   1.407       .  A
C947        C952   1.407       .  A
C947        H954   1.084       .  S
C948        C949   1.417       .  A
C949        C950   1.400       .  A
C949        N956   1.439       .  S
C950        C951   1.404       .  A
C950        H955   1.085       .  S
C951        C952   1.417       .  A
C952        N953   1.439       .  S
N953        H957   1.045       .  S
N953        H958   1.042       .  S
N956        H959   1.042       .  S
N956        H960   1.046       .  S
C961        C962   1.405       .  A
C961        C966   1.412       .  A
C961        H968   1.084       .  S
C962        C963   1.418       .  A
C963        C964   1.385       .  A
C963        N970   1.436       .  S
C964        C965   1.392       .  A
C964        H969   1.085       .  S
C965        C966   1.411       .  A
C966       N2207   1.437       .  S
N967       C2206   1.437       .  S
N967        H971   1.046       .  S
N967        H972   1.046       .  S
N970        H973   1.043       .  S
N970        H974   1.045       .  S
C975        C976   1.403       .  A
C975        C980   1.399       .  A
C975        H982   1.084       .  S
C976        C977   1.407       .  A
C977        C978   1.403       .  A
C978        C979   1.408       .  A
C978        H983   1.084       .  S
C979        C980   1.411       .  A
C980        N981   1.438       .  S
N981        H985   1.046       .  S
N981        H986   1.046       .  S
N984        H987   1.045       .  S
N984        H988   1.045       .  S
C989        C990   1.399       .  A
C989        C994   1.398       .  A
C989        H996   1.084       .  S
C990        C991   1.409       .  A
C991        C992   1.402       .  A
C991        N998   1.439       .  S
C992        C993   1.406       .  A
C992        H997   1.084       .  S
C993        C994   1.421       .  A
C994        N995   1.433       .  S
N995        H999   1.044       .  S
N995       H1000   1.046       .  S
N998       H1001   1.045       .  S
N998       H1002   1.046       .  S
C1003      C1004   1.403       .  A
C1003      C1008   1.407       .  A
C1003      H1010   1.084       .  S
C1004      C1005   1.407       .  A
C1005      C1006   1.399       .  A
C1005      N1012   1.433   1_556  S
C1006      C1007   1.402       .  A
C1006      H1011   1.084       .  S
C1007      C1008   1.418       .  A
N1009      H1013   1.046       .  S
N1009      H1014   1.043       .  S
N1012      H1015   1.046       .  S
N1012      H1016   1.046       .  S
C1017      C1018   1.401       .  A
C1017      C1022   1.402       .  A
C1017      H1024   1.084       .  S
C1018      C1019   1.416       .  A
C1019      C1020   1.405       .  A
C1019      N1026   1.438       .  S
C1020      C1021   1.406       .  A
C1020      H1025   1.083       .  S
C1021      C1022   1.409       .  A
C1022      N1023   1.433       .  S
N1023      H1027   1.045       .  S
N1023      H1028   1.046       .  S
N1026      H1029   1.043       .  S
N1026      H1030   1.046       .  S
C1031      C1032   1.405       .  A
C1031      C1036   1.413       .  A
C1031      H1038   1.084       .  S
C1032      C1033   1.416       .  A
C1033      C1034   1.400       .  A
C1033      N1040   1.440       .  S
C1034      C1035   1.405       .  A
C1034      H1039   1.083       .  S
C1035      C1036   1.416       .  A
C1036      N1037   1.431       .  S
N1037      H1041   1.045       .  S
N1037      H1042   1.046       .  S
N1040      H1043   1.046       .  S
N1040      H1044   1.045       .  S
C1045      C1046   1.409       .  A
C1045      C1050   1.399       .  A
C1045      H1052   1.084       .  S
C1046      C1047   1.418       .  A
C1047      C1048   1.409       .  A
C1047      N1054   1.438       .  S
C1048      C1049   1.403       .  A
C1048      H1053   1.084       .  S
C1049      C1050   1.415       .  A
C1050      N1051   1.438       .  S
N1051      H1055   1.045   1_565  S
N1051      H1056   1.043       .  S
N1054      H1057   1.045       .  S
N1054      H1058   1.046       .  S
C1059      C1060   1.401       .  A
C1059      C1064   1.402       .  A
C1059      H1066   1.084       .  S
C1060      C1061   1.410       .  A
C1061      C1062   1.401       .  A
C1061      N1068   1.433       .  S
C1062      C1063   1.406       .  A
C1062      H1067   1.082       .  S
C1063      C1064   1.408       .  A
C1064      N1065   1.432       .  S
N1065      H1069   1.046       .  S
N1065      H1070   1.046       .  S
N1068      H1071   1.045       .  S
N1068      H1072   1.046       .  S
C1073      C1074   1.404       .  A
C1073      C1078   1.410       .  A
C1073      H1080   1.084       .  S
C1074      C1075   1.410       .  A
C1075      C1076   1.392       .  A
C1075      N1082   1.434       .  S
C1076      C1077   1.395       .  A
C1076      H2321   1.084       .  S
C1077      C1078   1.411       .  A
C1078      N1079   1.437       .  S
N1079      H1083   1.045       .  S
N1079      H1084   1.044       .  S
H1081      C2316   1.084       .  S
N1082      H1085   1.046       .  S
N1082      H1086   1.045       .  S
C1087      C1088   1.401       .  A
C1087      C1092   1.401       .  A
C1087      H1094   1.083       .  S
C1088      C1089   1.418       .  A
C1089      C1090   1.406       .  A
C1089      N1096   1.438       .  S
C1090      C1091   1.408       .  A
C1090      H1095   1.083       .  S
C1091      C1092   1.418       .  A
C1092      N1093   1.438       .  S
N1093      H1097   1.046       .  S
N1093      H1098   1.046       .  S
N1096      H1099   1.043       .  S
N1096      H1100   1.045       .  S
C1101      C1102   1.404       .  A
C1101      C1106   1.402       .  A
C1101      H1108   1.084       .  S
C1102      C1103   1.403       .  A
C1103      C1104   1.399       .  A
C1103      N1110   1.432       .  S
C1104      C1105   1.407       .  A
C1104      H1109   1.084       .  S
C1105      C1106   1.411       .  A
C1106      N1107   1.433       .  S
N1107      H1111   1.046       .  S
N1107      H1112   1.046       .  S
N1110      H1113   1.045       .  S
N1110      H1114   1.046       .  S
C1115      C1116   1.405       .  A
C1115      C1120   1.403       .  A
C1115      H1122   1.084       .  S
C1116      C1117   1.415       .  A
C1117      C1118   1.401       .  A
C1117      N1124   1.437       .  S
C1118      C1119   1.404       .  A
C1118      H1123   1.080       .  S
C1119      C1120   1.407       .  A
C1120      N1121   1.438       .  S
N1121      H1125   1.045       .  S
N1121      H1126   1.045       .  S
N1124      H1127   1.043       .  S
N1124      H1128   1.044       .  S
C1129      C1130   1.405       .  A
C1129      C1134   1.407       .  A
C1129      H1136   1.083       .  S
C1130      C1131   1.414       .  A
C1131      C1132   1.404       .  A
C1131      N1138   1.439       .  S
C1132      C1133   1.404       .  A
C1132      H1137   1.084       .  S
C1133      C1134   1.413       .  A
C1134      N1135   1.438       .  S
N1135      H1139   1.046       .  S
N1135      H1140   1.046       .  S
N1138      H1141   1.044       .  S
N1138      H1142   1.046       .  S
C1143      C1144   1.397       .  A
C1143      C1148   1.393       .  A
C1143      H1150   1.077       .  S
C1144      C1145   1.416       .  A
C1145      C1146   1.413       .  A
C1145      N1152   1.437       .  S
C1146      C1147   1.411       .  A
C1146      H1151   1.084       .  S
C1147      C1148   1.415       .  A
C1148      N1149   1.434       .  S
N1149      H1153   1.043       .  S
N1149      H1154   1.045       .  S
N1152      H1155   1.044       .  S
N1152      H1156   1.045       .  S
C1157      C1158   1.405       .  A
C1157      C1162   1.409       .  A
C1157      H1164   1.083       .  S
C1158      C1159   1.404       .  A
C1159      C1160   1.399       .  A
C1159      N1166   1.432       .  S
C1160      C1161   1.403       .  A
C1160      H1165   1.083       .  S
C1161      C1162   1.409       .  A
C1162      N1163   1.437       .  S
N1163      H1167   1.046       .  S
N1163      H1168   1.045       .  S
N1166      H1169   1.046       .  S
N1166      H1170   1.045       .  S
C1171      C1172   1.404       .  A
C1171      C1176   1.400       .  A
C1171      H1178   1.084       .  S
C1172      C1173   1.416       .  A
C1173      C1174   1.409       .  A
C1173      N1180   1.437       .  S
C1174      C1175   1.408       .  A
C1174      H1179   1.084       .  S
C1175      C1176   1.406       .  A
C1176      N1177   1.432       .  S
N1177      H1181   1.046       .  S
N1177      H1182   1.045       .  S
N1180      H1183   1.043       .  S
N1180      H1184   1.046       .  S
C1185      C1186   1.398       .  A
C1185      C1190   1.397       .  A
C1185      H1192   1.083       .  S
C1186      C1187   1.410       .  A
C1187      C1188   1.412       .  A
C1187      N1194   1.437       .  S
C1188      C1189   1.410       .  A
C1188      H1193   1.083       .  S
C1189      C1190   1.418       .  A
C1190      N1191   1.433       .  S
N1191      H1195   1.046       .  S
N1191      H1196   1.046   1_556  S
N1194      H1197   1.046       .  S
N1194      H1198   1.046       .  S
C1199      C1200   1.404       .  A
C1199      C1204   1.407       .  A
C1200      C1201   1.407       .  A
C1201      C1202   1.400       .  A
C1201      N1208   1.432       .  S
C1202      C1203   1.403       .  A
C1202      H1207   1.085       .  S
C1203      C1204   1.419       .  A
C1204      N1205   1.439       .  S
N1205      H1209   1.045       .  S
N1205      H1210   1.043       .  S
N1208      H1211   1.046       .  S
N1208      H1212   1.045       .  S
C1213      C1214   1.402       .  A
C1213      C1218   1.405       .  A
C1213      H1220   1.084       .  S
C1214      C1215   1.402       .  A
C1215      C1216   1.400       .  A
C1215      N2462   1.432       .  S
C1216      C1217   1.410       .  A
C1216      H1221   1.084       .  S
C1217      C1218   1.415       .  A
C1218      N1219   1.437       .  S
N1219      H1223   1.046       .  S
N1219      H1224   1.046       .  S
N1222      C2455   1.432       .  S
N1222      H1225   1.046       .  S
N1222      H1226   1.046   1_655  S
C1227      C1228   1.399       .  A
C1227      C1232   1.397       .  A
C1227      H1234   1.084       .  S
C1228      C1229   1.415       .  A
C1229      C1230   1.403       .  A
C1229      N1236   1.438       .  S
C1230      C1231   1.405       .  A
C1230      H1235   1.084       .  S
C1231      C1232   1.409       .  A
C1232      N1233   1.433       .  S
N1233      H1237   1.045       .  S
N1233      H1238   1.046       .  S
N1236      H1239   1.043   1_556  S
N1236      H1240   1.045       .  S
O1241     Ni1247   1.897       .  S
O1241      C1262   1.261       .  A
O1242     Ni1265   1.887       .  S
O1242      C1251   1.266       .  A
O1243     Ni1247   1.885       .  S
O1243     Ni1265   1.879   1_554  S
O1243     Ni1259   1.918       .  S
O1243      H1266   0.966       .  S
C1244      O1261   1.281       .  A
C1244      O1253   1.280       .  A
C1244      C1781   1.470       .  S
O1245     Ni1264   1.949       .  S
O1245      C1251   1.278       .  A
O1246     Ni1264   1.908   1_554  S
O1246      C1248   1.271       .  A
Ni1247     O1250   1.901       .  S
Ni1247     O1252   1.905       .  S
C1248      O1258   1.275       .  A
C1248      C1792   1.477       .  S
O1249     Ni1265   1.946   1_554  S
O1249      C1255   1.285       .  A
O1250      C1255   1.276       .  A
C1251      C1848   1.467       .  S
O1252      C1254   1.263   1_554  A
O1253     Ni1264   1.931       .  S
C1254      O1260   1.269       .  A
C1254      C1809   1.494       .  S
C1255      C1837   1.487       .  S
H1256      O1257   0.968       .  S
O1257     Ni1265   1.905       .  S
O1257     Ni1259   1.905   1_556  S
O1257     Ni1264   1.887       .  S
O1258     Ni1259   1.941       .  S
Ni1259     O1263   1.938       .  S
Ni1259     O1261   1.921   1_554  S
O1260     Ni1265   1.935       .  S
C1262      O1263   1.276       .  A
C1262      C1823   1.470       .  S
O1267     Ni1273   1.944       .  S
O1267      C1288   1.278       .  A
O1268     Ni1291   1.939       .  S
O1268      C1277   1.275       .  A
O1269     Ni1273   1.888       .  S
O1269     Ni1291   1.907       .  S
O1269     Ni1285   1.904       .  S
O1269      H1292   0.969       .  S
C1270      O1287   1.283       .  A
C1270      O1279   1.277       .  A
C1270      C1725   1.480       .  S
O1271     Ni1290   1.893       .  S
O1271      C1277   1.260       .  A
O1272     Ni1290   1.902       .  S
O1272      C1274   1.263       .  A
Ni1273     O1276   1.930       .  S
Ni1273     O1278   1.921       .  S
C1274      O1284   1.270       .  A
C1274      C1711   1.493       .  S
O1275     Ni1291   1.925       .  S
O1275      C1281   1.282       .  A
O1276      C1281   1.280       .  A
C1277      C1694   1.468       .  S
O1278      C1280   1.271       .  A
O1279     Ni1290   1.902       .  S
C1280      O1286   1.276       .  A
C1280      C1764   1.484       .  S
C1281      C1736   1.473       .  S
H1282      O1283   0.964       .  S
O1283     Ni1291   1.920       .  S
O1283     Ni1285   1.880       .  S
O1283     Ni1290   1.884       .  S
O1284     Ni1285   1.936       .  S
Ni1285     O1289   1.889       .  S
Ni1285     O1287   1.940       .  S
O1286     Ni1291   1.939       .  S
C1288      O1289   1.267       .  A
C1288      C1753   1.483       .  S
O1293     Ni1301   1.965       .  S
O1293      C1303   1.292       .  A
O1294     Ni1921   1.987       .  S
O1294      C1304   1.297       .  A
O1295     Ni1301   1.991       .  S
O1295      C1305   1.296       .  A
O1296     Ni1921   1.970       .  S
O1296      C1306   1.287       .  A
O1297     Ni1922   1.907       .  S
O1297      C1306   1.266       .  A
O1298     Ni1302   1.855       .  S
O1298      C1305   1.251       .  A
O1299     Ni1922   1.846       .  S
O1299      C1304   1.241       .  A
O1300     Ni1302   1.911       .  S
O1300      C1303   1.269       .  A
Ni1301     O1914   1.986   1_545  S
Ni1301     O1916   1.970   1_545  S
Ni1301    Ni1302   2.344       .  S
Ni1302     O1917   1.907   1_545  S
Ni1302     O1919   1.846   1_545  S
C1303      C1339   1.531       .  S
C1304      C1354   1.492       .  S
C1305      C1379   1.507       .  S
C1306      C1362   1.545       .  S
O1307     Ni1315   1.982       .  S
O1307      C1317   1.294       .  A
O1308     Ni1315   1.981       .  S
O1308      C1318   1.294       .  A
O1309     Ni1315   1.951       .  S
O1309      C1319   1.291       .  A
O1310     Ni1315   1.950       .  S
O1310      C1320   1.291       .  A
O1311     Ni1316   1.893       .  S
O1311      C1320   1.264       .  A
O1312     Ni1316   1.892       .  S
O1312      C1319   1.263       .  A
O1313     Ni1316   1.867       .  S
O1313      C1318   1.251       .  A
O1314     Ni1316   1.869       .  S
O1314      C1317   1.252       .  A
Ni1315    Ni1316   2.294       .  S
C1317      C1346   1.521       .  S
C1318      C1378   1.519       .  S
C1319      C1371   1.492       .  S
C1320      C1338   1.492       .  S
O1321     Ni1329   1.971       .  S
O1321      C1331   1.292       .  A
O1322      C1332   1.297       .  A
O1323     Ni1329   1.997       .  S
O1323      C1333   1.298       .  A
O1324      C1334   1.289       .  A
O1325      C1334   1.265       .  A
O1326     Ni1330   1.852       .  S
O1326      C1333   1.249       .  A
O1327      C1332   1.242       .  A
O1328     Ni1330   1.912       .  S
O1328      C1331   1.269       .  A
Ni1329    Ni1330   2.343       .  S
C1331      C1370   1.534       .  S
C1332      C1363   1.497       .  S
C1333      C1347   1.509       .  S
C1334      C1355   1.545       .  S
C1335      C1697   1.473       .  S
C1335      C1340   1.406       .  A
C1336      C1683   1.488       .  S
C1336      C1337   1.394       .  A
C1337      C1338   1.405       .  A
C1337      H1342   1.085       .  S
C1339      C1340   1.412       .  A
C1340      H1341   1.084       .  S
C1343      C1669   1.489       .  S
C1343      C1964   1.414       .  A
C1343      C1348   1.406       .  A
C1344      C1722   1.481       .  S
C1344      C1963   1.414   1_545  A
C1344      C1345   1.397       .  A
C1345      C1346   1.398       .  A
C1345      H1350   1.085       .  S
C1346      C1967   1.468   1_545  A
C1347      C1966   1.468       .  A
C1347      C1348   1.406       .  A
C1348      H1349   1.084       .  S
C1351      C1851   1.486       .  S
C1351      C1352   1.423       .  A
C1351      C1356   1.413       .  A
C1352      C1655   1.507       .  S
C1352      C1353   1.406       .  A
C1353      C1354   1.398       .  A
C1353      H1358   1.084       .  S
C1354      C1355   1.464       .  A
C1355      C1356   1.405       .  A
C1356      H1357   1.084       .  S
C1359      C1767   1.497       .  S
C1359      C1360   1.418       .  A
C1359      C1364   1.403       .  A
C1360      C1641   1.492       .  S
C1360      C1361   1.413       .  A
C1361      C1362   1.409       .  A
C1361      H1366   1.084       .  S
C1362      C1363   1.466       .  A
C1363      C1364   1.400       .  A
C1364      H1365   1.084       .  S
C1367      C1778   1.482       .  S
C1367      C1988   1.402   1_545  A
C1367      C1372   1.393       .  A
C1368      C1627   1.485       .  S
C1368      C1987   1.402       .  A
C1368      C1369   1.412       .  A
C1369      C1370   1.418       .  A
C1369      H1374   1.083       .  S
C1370      C1991   1.461       .  A
C1371      C1990   1.461   1_545  A
C1371      C1372   1.403       .  A
C1372      H1373   1.085       .  S
C1375      C1806   1.487       .  S
C1375      C1380   1.405       .  A
C1376      C1610   1.480       .  S
C1376      C1377   1.396       .  A
C1377      C1378   1.396       .  A
C1377      H1382   1.085       .  S
C1379      C1380   1.407       .  A
C1380      H1381   1.084       .  S
O1383     Ni1389   1.881       .  S
O1383      C1404   1.255       .  A
O1384     Ni1407   1.895       .  S
O1384      C1393   1.268       .  A
O1385     Ni1389   1.878       .  S
O1385     Ni1407   1.875       .  S
O1385     Ni1401   1.922       .  S
O1385      H1408   0.963       .  S
C1386      O1403   1.281       .  A
C1386      O1395   1.280       .  A
C1386      C1680   1.467       .  S
O1387     Ni1406   1.946       .  S
O1387      C1393   1.278       .  A
O1388     Ni1406   1.911       .  S
O1388      C1390   1.272       .  A
Ni1389     O1392   1.896       .  S
Ni1389     O1394   1.903       .  S
C1390      O1400   1.276       .  A
C1390      C1571   1.482       .  S
O1391     Ni1407   1.939       .  S
O1391      C1397   1.285       .  A
O1392      C1397   1.277       .  A
C1393      C1638   1.472       .  S
O1394      C1396   1.263       .  A
O1395     Ni1406   1.927       .  S
C1396      O1402   1.268       .  A
C1396      C1666   1.496       .  S
C1397      C1599   1.475       .  S
H1398      O1399   0.967       .  S
O1399     Ni1407   1.903       .  S
O1399     Ni1401   1.906       .  S
O1399     Ni1406   1.881       .  S
O1400     Ni1401   1.936       .  S
Ni1401     O1405   1.947       .  S
Ni1401     O1403   1.921       .  S
O1402     Ni1407   1.934       .  S
C1404      O1405   1.276       .  A
C1404      C1582   1.471       .  S
O1409     Ni1415   1.943       .  S
O1409      C1430   1.278       .  A
O1410     Ni1433   1.939       .  S
O1410      C1419   1.275       .  A
O1411     Ni1415   1.891       .  S
O1411     Ni1433   1.900   1_554  S
O1411     Ni1427   1.907       .  S
O1411      H1434   0.966       .  S
C1412      O1429   1.284       .  A
C1412      O1421   1.276       .  A
C1412      C1613   1.484       .  S
O1413     Ni1432   1.901       .  S
O1413      C1419   1.262       .  A
O1414     Ni1432   1.900       .  S
O1414      C1416   1.264   1_556  A
Ni1415     O1418   1.936       .  S
Ni1415     O1420   1.925   1_554  S
C1416      O1426   1.270       .  A
C1416      C1540   1.487       .  S
O1417     Ni1433   1.934   1_554  S
O1417      C1423   1.287       .  A
O1418      C1423   1.282       .  A
C1419      C1624   1.468       .  S
O1420      C1422   1.272       .  A
O1421     Ni1432   1.906       .  S
C1422      O1428   1.270       .  A
C1422      C1652   1.487       .  S
C1423      C1554   1.487       .  S
H1424      O1425   0.967       .  S
O1425     Ni1433   1.923       .  S
O1425     Ni1427   1.878   1_556  S
O1425     Ni1432   1.882       .  S
O1426     Ni1427   1.934       .  S
Ni1427     O1431   1.892       .  S
Ni1427     O1429   1.940   1_554  S
O1428     Ni1433   1.918       .  S
C1430      O1431   1.268       .  A
C1430      C1529   1.478       .  S
O1435     Ni1443   1.908       .  S
O1435      C1445   1.267       .  A
O1436      C1446   1.241       .  A
O1437     Ni1443   1.858       .  S
O1437      C1447   1.250       .  A
O1438      C1448   1.268       .  A
O1439      C1448   1.288       .  A
O1440     Ni1444   1.987       .  S
O1440      C1447   1.295       .  A
O1441      C1446   1.297       .  A
O1442     Ni1444   1.972       .  S
O1442      C1445   1.292       .  A
Ni1443    Ni1444   2.345       .  S
C1445      C1488   1.533       .  S
C1446      C1496   1.492       .  S
C1447      C1466   1.504       .  S
C1448      C1504   1.548       .  S
O1449     Ni1457   1.953       .  S
O1449      C1459   1.292       .  A
O1450     Ni1457   1.957       .  S
O1450      C1460   1.292       .  A
O1451     Ni1457   1.977       .  S
O1451      C1461   1.292       .  A
O1452     Ni1457   1.976       .  S
O1452      C1462   1.292       .  A
O1453     Ni1458   1.866       .  S
O1453      C1462   1.251       .  A
O1454     Ni1458   1.866       .  S
O1454      C1461   1.252       .  A
O1455     Ni1458   1.895       .  S
O1455      C1460   1.264       .  A
O1456     Ni1458   1.892       .  S
O1456      C1459   1.263       .  A
Ni1457    Ni1458   2.297       .  S
C1459      C1512   1.494       .  S
C1460      C1489   1.498       .  S
C1461      C1520   1.518       .  S
C1462      C1467   1.517       .  S
C1463      C1596   1.478       .  S
C1463      C2084   1.415       .  A
C1463      C1468   1.396       .  A
C1464      C1708   1.489       .  S
C1464      C2083   1.415   1_545  A
C1464      C1465   1.405       .  A
C1465      C1466   1.404       .  A
C1465      H1470   1.084       .  S
C1466      C2087   1.465   1_545  A
C1467      C2086   1.465       .  A
C1467      C1468   1.394       .  A
C1468      H1469   1.085       .  S
O1471     Ni1479   1.902       .  S
O1471      C1481   1.266       .  A
O1472     Ni2099   1.837   1_545  S
O1472      C1482   1.238       .  A
O1473     Ni1479   1.856       .  S
O1473      C1483   1.249       .  A
O1474     Ni2099   1.910   1_545  S
O1474      C1484   1.266       .  A
O1475     Ni2100   1.971   1_545  S
O1475      C1484   1.288       .  A
O1476     Ni1480   1.993       .  S
O1476      C1483   1.296       .  A
O1477     Ni2100   1.985   1_545  S
O1477      C1482   1.297       .  A
O1478     Ni1480   1.963       .  S
O1478      C1481   1.292       .  A
Ni1479     O2092   1.836       .  S
Ni1479     O2094   1.910       .  S
Ni1479    Ni1480   2.345       .  S
Ni1480     O2095   1.973       .  S
Ni1480     O2097   1.985       .  S
C1481      C1513   1.526       .  S
C1482      C1505   1.484       .  S
C1483      C1521   1.510       .  S
C1484      C1497   1.548       .  S
C1485      C1557   1.491       .  S
C1485      C2106   1.409       .  A
C1485      C1490   1.397       .  A
C1486      C1820   1.487       .  S
C1486      C2105   1.408   1_545  A
C1486      C1487   1.413       .  A
C1487      C1488   1.418       .  A
C1487      H1492   1.084       .  S
C1488      C2109   1.461   1_545  A
C1489      C2108   1.461       .  A
C1489      C1490   1.403       .  A
C1490      H1491   1.085       .  S
C1493      C1750   1.494       .  S
C1493      C1494   1.419       .  A
C1493      C1498   1.410       .  A
C1494      C1568   1.496       .  S
C1494      C1495   1.401       .  A
C1495      C1496   1.403       .  A
C1495      H1500   1.085       .  S
C1496      C1497   1.467       .  A
C1497      C1498   1.408       .  A
C1498      H1499   1.083       .  S
C1501      C1795   1.491       .  S
C1501      C1502   1.417       .  A
C1501      C1506   1.396       .  A
C1502      C1526   1.488       .  S
C1502      C1503   1.409       .  A
C1503      C1504   1.407       .  A
C1503      H1508   1.084       .  S
C1504      C1505   1.468       .  A
C1505      C1506   1.399       .  A
C1506      H1507   1.085       .  S
C1509      C1585   1.473       .  S
C1509      C1514   1.404       .  A
C1510      C1739   1.488       .  S
C1510      C1511   1.394       .  A
C1511      C1512   1.403       .  A
C1511      H1516   1.085       .  S
C1513      C1514   1.411       .  A
C1514      H1515   1.084       .  S
C1517      C1543   1.477       .  S
C1517      C1522   1.404       .  A
C1518      C1834   1.481       .  S
C1518      C1519   1.395       .  A
C1519      C1520   1.399       .  A
C1519      H1524   1.084       .  S
C1521      C1522   1.405       .  A
C1522      H1523   1.084       .  S
C1525      C1526   1.403       .  A
C1525      C1530   1.400       .  A
C1525      H1532   1.084       .  S
C1526      C1527   1.420       .  A
C1527      C1528   1.401       .  A
C1527      N1534   1.441       .  S
C1528      C1529   1.403       .  A
C1528      H1533   1.085       .  S
C1529      C1530   1.420       .  A
C1530      N1531   1.440       .  S
N1531      H1535   1.046       .  S
N1531      H1536   1.040       .  S
N1534      H1537   1.041       .  S
N1534      H1538   1.046       .  S
C1539      C1540   1.408       .  A
C1539      C1544   1.393       .  A
C1539      H1546   1.084       .  S
C1540      C1541   1.414       .  A
C1541      C1542   1.410       .  A
C1541      N1548   1.437       .  S
C1542      C1543   1.403       .  A
C1542      H1547   1.084       .  S
C1543      C1544   1.413       .  A
C1544      N1545   1.441       .  S
N1545      H1549   1.046       .  S
N1545      H1550   1.042       .  S
N1548      H1551   1.046       .  S
N1548      H1552   1.046       .  S
C1553      C1554   1.405       .  A
C1553      C1558   1.409       .  A
C1553      H1560   1.084       .  S
C1554      C1555   1.425       .  A
C1555      C1556   1.399       .  A
C1555      N1562   1.438       .  S
C1556      C1557   1.398       .  A
C1556      H1561   1.084       .  S
C1557      C1558   1.409       .  A
C1558      N1559   1.431       .  S
N1559      H1563   1.046       .  S
N1559      H1564   1.046       .  S
N1562      H1565   1.038   1_554  S
N1562      H1566   1.045       .  S
C1567      C1568   1.407       .  A
C1567      C1572   1.408       .  A
C1567      H1574   1.084       .  S
C1568      C1569   1.417       .  A
C1569      C1570   1.400       .  A
C1569      N1576   1.439       .  S
C1570      C1571   1.404       .  A
C1570      H1575   1.085       .  S
C1571      C1572   1.417       .  A
C1572      N1573   1.439       .  S
N1573      H1577   1.045       .  S
N1573      H1578   1.042       .  S
N1576      H1579   1.042       .  S
N1576      H1580   1.046       .  S
C1581      C1582   1.406       .  A
C1581      C1586   1.413       .  A
C1581      H1588   1.084       .  S
C1582      C1583   1.420       .  A
C1583      C1584   1.385       .  A
C1583      N1590   1.436       .  S
C1584      C1585   1.392       .  A
C1584      H1589   1.085       .  S
C1585      C1586   1.411       .  A
N1587      H1591   1.046       .  S
N1587      H1592   1.046       .  S
N1590      H1593   1.043       .  S
N1590      H1594   1.045       .  S
C1595      C1596   1.403       .  A
C1595      C1600   1.399       .  A
C1595      H1602   1.084       .  S
C1596      C1597   1.407       .  A
C1597      C1598   1.402       .  A
C1597      N2224   1.438       .  S
C1598      C1599   1.408       .  A
C1598      H1603   1.084       .  S
C1599      C1600   1.411       .  A
C1600      N1601   1.438       .  S
N1601      H1605   1.046       .  S
N1601      H1606   1.046       .  S
N1604      C2217   1.438       .  S
N1604      H1607   1.045       .  S
N1604      H1608   1.045       .  S
C1609      C1610   1.399       .  A
C1609      C1614   1.398       .  A
C1609      H1616   1.084       .  S
C1610      C1611   1.410       .  A
C1611      C1612   1.402       .  A
C1611      N1618   1.439       .  S
C1612      C1613   1.406       .  A
C1612      H1617   1.084       .  S
C1613      C1614   1.422       .  A
C1614      N1615   1.433       .  S
N1615      H1619   1.044       .  S
N1615      H1620   1.046       .  S
N1618      H1621   1.045       .  S
N1618      H1622   1.046       .  S
C1623      C1624   1.403       .  A
C1623      C1628   1.407       .  A
C1623      H1630   1.084       .  S
C1624      C1625   1.406       .  A
C1625      C1626   1.398       .  A
C1625      N1632   1.433   1_556  S
C1626      C1627   1.403       .  A
C1626      H1631   1.084       .  S
C1627      C1628   1.419       .  A
C1628      N2249   1.438       .  S
N1629      C2248   1.438       .  S
N1629      H1633   1.045       .  S
N1629      H1634   1.043       .  S
N1632      H1635   1.046       .  S
N1632      H1636   1.046       .  S
C1637      C1638   1.401       .  A
C1637      C1642   1.401       .  A
C1637      H1644   1.084       .  S
C1638      C1639   1.416       .  A
C1639      C1640   1.405       .  A
C1639      N1646   1.438       .  S
C1640      C1641   1.407       .  A
C1640      H1645   1.083       .  S
C1641      C1642   1.410       .  A
C1642      N1643   1.432       .  S
N1643      H1647   1.045       .  S
N1643      H1648   1.046       .  S
N1646      H1649   1.043       .  S
N1646      H1650   1.046       .  S
C1651      C1652   1.405       .  A
C1651      C1656   1.412       .  A
C1651      H1658   1.084       .  S
C1652      C1653   1.416       .  A
C1653      C1654   1.400       .  A
C1653      N1660   1.440       .  S
C1654      C1655   1.405       .  A
C1654      H1659   1.083       .  S
C1655      C1656   1.417       .  A
C1656      N1657   1.431       .  S
N1657      H1661   1.045       .  S
N1657      H1662   1.046       .  S
N1660      H1663   1.046       .  S
N1660      H1664   1.045       .  S
C1665      C1666   1.410       .  A
C1665      C1670   1.399       .  A
C1665      H1672   1.084       .  S
C1666      C1667   1.418       .  A
C1667      C1668   1.410       .  A
C1667      N1674   1.438       .  S
C1668      C1669   1.403       .  A
C1668      H1673   1.084       .  S
C1669      C1670   1.416       .  A
C1670      N1671   1.439       .  S
N1671      H1675   1.046       .  S
N1671      H1676   1.043       .  S
N1674      H1677   1.045       .  S
N1674      H1678   1.046       .  S
C1679      C1680   1.401       .  A
C1679      C1684   1.402       .  A
C1679      H1686   1.084       .  S
C1680      C1681   1.410       .  A
C1681      C1682   1.400       .  A
C1681      N1688   1.433       .  S
C1682      C1683   1.405       .  A
C1682      H1687   1.082       .  S
C1683      C1684   1.408       .  A
C1684      N1685   1.432       .  S
N1685      H1689   1.046       .  S
N1685      H1690   1.046       .  S
N1688      H1691   1.045       .  S
N1688      H1692   1.046       .  S
C1693      C1694   1.403       .  A
C1693      C1698   1.410       .  A
C1693      H1700   1.084       .  S
C1694      C1695   1.410       .  A
C1695      C1696   1.393       .  A
C1695      N1702   1.434       .  S
C1696      C1697   1.395       .  A
C1697      C1698   1.411       .  A
C1698      N1699   1.437       .  S
N1699      H1703   1.045       .  S
N1699      H1704   1.044       .  S
N1702      H1705   1.046       .  S
N1702      H1706   1.046       .  S
C1707      C1708   1.401       .  A
C1707      C1712   1.399       .  A
C1707      H1714   1.083       .  S
C1708      C1709   1.418       .  A
C1709      C1710   1.406       .  A
C1709      N1716   1.438       .  S
C1710      C1711   1.408       .  A
C1710      H1715   1.083       .  S
C1711      C1712   1.418       .  A
C1712      N1713   1.438       .  S
N1713      H1717   1.046       .  S
N1713      H1718   1.046       .  S
N1716      H1719   1.043       .  S
N1716      H1720   1.045       .  S
C1721      C1722   1.405       .  A
C1721      C1726   1.402       .  A
C1721      H1728   1.084       .  S
C1722      C1723   1.404       .  A
C1723      C1724   1.400       .  A
C1723      N1730   1.432       .  S
C1724      C1725   1.407       .  A
C1724      H1729   1.084       .  S
C1725      C1726   1.411       .  A
C1726      N1727   1.433       .  S
N1727      H1731   1.046       .  S
N1727      H1732   1.046       .  S
N1730      H1733   1.045   1_545  S
N1730      H1734   1.046       .  S
C1735      C1736   1.405       .  A
C1735      C1740   1.404       .  A
C1735      H1742   1.084       .  S
C1736      C1737   1.415       .  A
C1737      C1738   1.401       .  A
C1737      N1744   1.436       .  S
C1738      C1739   1.404       .  A
C1738      H1743   1.080       .  S
C1739      C1740   1.408       .  A
C1740      N1741   1.438       .  S
N1741      H1745   1.045       .  S
N1741      H1746   1.045       .  S
N1744      H1747   1.043       .  S
N1744      H1748   1.045       .  S
C1749      C1750   1.406       .  A
C1749      C1754   1.407       .  A
C1749      H1756   1.083       .  S
C1750      C1751   1.414       .  A
C1751      C1752   1.404       .  A
C1751      N1758   1.439       .  S
C1752      C1753   1.404       .  A
C1752      H1757   1.084       .  S
C1753      C1754   1.413       .  A
C1754      N1755   1.438       .  S
N1755      H1759   1.046       .  S
N1755      H1760   1.046       .  S
N1758      H1761   1.044       .  S
N1758      H1762   1.046       .  S
C1763      C1764   1.398       .  A
C1763      C1768   1.394       .  A
C1763      H1770   1.076       .  S
C1764      C1765   1.417       .  A
C1765      C1766   1.413       .  A
C1765      N1772   1.437       .  S
C1766      C1767   1.410       .  A
C1766      H1771   1.084       .  S
C1767      C1768   1.415       .  A
C1768      N1769   1.434       .  S
N1769      H1773   1.043       .  S
N1769      H1774   1.045       .  S
N1772      H1775   1.044       .  S
N1772      H1776   1.045       .  S
C1777      C1778   1.405       .  A
C1777      C1782   1.409       .  A
C1777      H1784   1.083       .  S
C1778      C1779   1.404       .  A
C1779      C1780   1.399       .  A
C1779      N1786   1.432       .  S
C1780      C1781   1.403       .  A
C1780      H1785   1.083       .  S
C1781      C1782   1.408       .  A
C1782      N1783   1.437       .  S
N1783      H1787   1.046       .  S
N1783      H1788   1.045       .  S
N1786      H1789   1.046       .  S
N1786      H1790   1.045       .  S
C1791      C1792   1.404       .  A
C1791      C1796   1.400       .  A
C1791      H1798   1.084       .  S
C1792      C1793   1.416       .  A
C1793      C1794   1.408       .  A
C1793      N1800   1.437       .  S
C1794      C1795   1.407       .  A
C1794      H1799   1.084       .  S
C1795      C1796   1.406       .  A
C1796      N1797   1.432       .  S
N1797      H1801   1.046       .  S
N1797      H1802   1.045       .  S
N1800      H1803   1.043       .  S
N1800      H1804   1.046       .  S
C1805      C1806   1.398       .  A
C1805      C1810   1.397       .  A
C1805      H1812   1.083       .  S
C1806      C1807   1.410       .  A
C1807      C1808   1.413       .  A
C1807      N1814   1.437       .  S
C1808      C1809   1.411       .  A
C1808      H1813   1.083       .  S
C1809      C1810   1.418       .  A
C1810      N1811   1.433       .  S
N1811      H1815   1.046       .  S
N1811      H1816   1.046   1_556  S
N1814      H1817   1.045       .  S
N1814      H1818   1.046       .  S
C1819      C1820   1.403       .  A
C1819      C1824   1.406       .  A
C1819      H2446   1.084       .  S
C1820      C1821   1.409       .  A
C1821      C1822   1.402       .  A
C1821      N1828   1.438       .  S
C1822      C1823   1.404       .  A
C1822      H1827   1.084       .  S
C1823      C1824   1.418       .  A
C1824      N1825   1.439       .  S
N1825      H1829   1.045       .  S
N1825      H1830   1.043       .  S
H1826      C2439   1.084       .  S
N1828      H1831   1.046       .  S
N1828      H1832   1.045       .  S
C1833      C1834   1.402       .  A
C1833      C1838   1.405       .  A
C1833      H1840   1.084       .  S
C1834      C1835   1.403       .  A
C1835      C1836   1.401       .  A
C1836      C1837   1.410       .  A
C1836      H1841   1.084       .  S
C1837      C1838   1.415       .  A
C1838      N1839   1.438       .  S
N1839      H1843   1.046       .  S
N1839      H1844   1.046       .  S
N1842      H1845   1.046       .  S
N1842      H1846   1.046       .  S
C1847      C1848   1.399       .  A
C1847      C1852   1.398       .  A
C1847      H1854   1.084       .  S
C1848      C1849   1.416       .  A
C1849      C1850   1.403       .  A
C1849      N1856   1.438       .  S
C1850      C1851   1.406       .  A
C1850      H1855   1.084       .  S
C1851      C1852   1.410       .  A
C1852      N1853   1.433       .  S
N1853      H1857   1.045       .  S
N1853      H1858   1.046       .  S
N1856      H1859   1.043   1_556  S
N1856      H1860   1.045       .  S
O1861     Ni1867   1.897       .  S
O1861      C1882   1.261       .  A
O1862     Ni1885   1.887       .  S
O1862      C1871   1.266       .  A
O1863     Ni1867   1.884       .  S
O1863     Ni1885   1.879   1_554  S
O1863     Ni1879   1.917       .  S
O1863      H1886   0.965       .  S
C1864      O1881   1.282       .  A
C1864      O1873   1.280       .  A
C1864      C2401   1.470       .  S
O1865     Ni1884   1.947       .  S
O1865      C1871   1.278       .  A
O1866     Ni1884   1.908   1_554  S
O1866      C1868   1.271       .  A
Ni1867     O1870   1.900       .  S
Ni1867     O1872   1.904       .  S
C1868      O1878   1.276       .  A
C1868      C2412   1.478       .  S
O1869     Ni1885   1.947   1_554  S
O1869      C1875   1.285       .  A
O1870      C1875   1.276       .  A
C1871      C2468   1.465       .  S
O1872      C1874   1.262   1_554  A
O1873     Ni1884   1.930       .  S
C1874      O1880   1.269       .  A
C1874      C2429   1.494       .  S
C1875      C2457   1.486       .  S
H1876      O1877   0.967       .  S
O1877     Ni1885   1.905       .  S
O1877     Ni1879   1.904   1_556  S
O1877     Ni1884   1.887       .  S
O1878     Ni1879   1.942       .  S
Ni1879     O1883   1.938       .  S
Ni1879     O1881   1.922   1_554  S
O1880     Ni1885   1.935       .  S
C1882      O1883   1.277       .  A
C1882      C2443   1.471       .  S
O1887     Ni1893   1.944       .  S
O1887      C1908   1.278       .  A
O1888     Ni1911   1.939       .  S
O1888      C1897   1.274       .  A
O1889     Ni1893   1.888       .  S
O1889     Ni1911   1.907       .  S
O1889     Ni1905   1.904       .  S
O1889      H1912   0.969       .  S
C1890      O1907   1.284       .  A
C1890      O1899   1.276       .  A
C1890      C2345   1.479       .  S
O1891     Ni1910   1.890       .  S
O1891      C1897   1.260       .  A
O1892     Ni1910   1.904       .  S
O1892      C1894   1.263       .  A
Ni1893     O1896   1.929       .  S
Ni1893     O1898   1.921       .  S
C1894      O1904   1.270       .  A
C1894      C2331   1.495       .  S
O1895     Ni1911   1.925       .  S
O1895      C1901   1.282       .  A
O1896      C1901   1.280       .  A
C1897      C2314   1.467       .  S
O1898      C1900   1.271       .  A
O1899     Ni1910   1.899       .  S
C1900      O1906   1.275       .  A
C1900      C2384   1.482       .  S
C1901      C2356   1.473       .  S
H1902      O1903   0.964       .  S
O1903     Ni1911   1.919       .  S
O1903     Ni1905   1.879       .  S
O1903     Ni1910   1.882       .  S
O1904     Ni1905   1.937       .  S
Ni1905     O1909   1.890       .  S
Ni1905     O1907   1.941       .  S
O1906     Ni1911   1.936       .  S
C1908      O1909   1.268       .  A
C1908      C2373   1.483       .  S
O1913     Ni1921   1.966       .  S
O1913      C1923   1.292       .  A
O1914      C1924   1.296       .  A
O1915     Ni1921   1.991       .  S
O1915      C1925   1.296       .  A
O1916      C1926   1.288       .  A
O1917      C1926   1.266       .  A
O1918     Ni1922   1.855       .  S
O1918      C1925   1.251       .  A
O1919      C1924   1.241       .  A
O1920     Ni1922   1.911       .  S
O1920      C1923   1.269       .  A
Ni1921    Ni1922   2.344       .  S
C1923      C1959   1.531       .  S
C1924      C1974   1.491       .  S
C1925      C1999   1.508       .  S
C1926      C1982   1.545       .  S
O1927     Ni1935   1.982       .  S
O1927      C1937   1.294       .  A
O1928     Ni1935   1.981       .  S
O1928      C1938   1.294       .  A
O1929     Ni1935   1.951       .  S
O1929      C1939   1.291       .  A
O1930     Ni1935   1.950       .  S
O1930      C1940   1.291       .  A
O1931     Ni1936   1.893       .  S
O1931      C1940   1.264       .  A
O1932     Ni1936   1.893       .  S
O1932      C1939   1.264       .  A
O1933     Ni1936   1.867       .  S
O1933      C1938   1.251       .  A
O1934     Ni1936   1.869       .  S
O1934      C1937   1.251       .  A
Ni1935    Ni1936   2.294       .  S
C1937      C1966   1.521       .  S
C1938      C1998   1.519       .  S
C1939      C1991   1.493       .  S
C1940      C1958   1.492       .  S
O1941     Ni1949   1.971       .  S
O1941      C1951   1.292       .  A
O1942      C1952   1.297       .  A
O1943     Ni1949   1.997       .  S
O1943      C1953   1.298       .  A
O1944      C1954   1.289       .  A
O1945      C1954   1.265       .  A
O1946     Ni1950   1.851       .  S
O1946      C1953   1.249       .  A
O1947      C1952   1.241       .  A
O1948     Ni1950   1.913       .  S
O1948      C1951   1.270       .  A
Ni1949    Ni1950   2.343       .  S
C1951      C1990   1.535       .  S
C1952      C1983   1.497       .  S
C1953      C1967   1.508       .  S
C1954      C1975   1.545       .  S
C1955      C2317   1.472       .  S
C1955      C1960   1.406       .  A
C1956      C2303   1.489       .  S
C1956      C1957   1.394       .  A
C1957      C1958   1.406       .  A
C1957      H1962   1.085       .  S
C1959      C1960   1.412       .  A
C1960      H1961   1.084       .  S
C1963      C2289   1.488       .  S
C1963      C1968   1.406       .  A
C1964      C2342   1.479       .  S
C1964      C1965   1.397       .  A
C1965      C1966   1.397       .  A
C1965      H1970   1.085       .  S
C1967      C1968   1.405       .  A
C1968      H1969   1.084       .  S
C1971      C2471   1.484       .  S
C1971      C1972   1.421       .  A
C1971      C1976   1.412       .  A
C1972      C2275   1.506       .  S
C1972      C1973   1.405       .  A
C1973      C1974   1.399       .  A
C1973      H1978   1.084       .  S
C1974      C1975   1.464       .  A
C1975      C1976   1.404       .  A
C1976      H1977   1.084       .  S
C1979      C2387   1.496       .  S
C1979      C1980   1.418       .  A
C1979      C1984   1.403       .  A
C1980      C2261   1.492       .  S
C1980      C1981   1.413       .  A
C1981      C1982   1.409       .  A
C1981      H1986   1.084       .  S
C1982      C1983   1.466       .  A
C1983      C1984   1.400       .  A
C1984      H1985   1.084       .  S
C1987      C2398   1.483       .  S
C1987      C1992   1.393       .  A
C1988      C2247   1.485       .  S
C1988      C1989   1.412       .  A
C1989      C1990   1.418       .  A
C1989      H1994   1.083       .  S
C1991      C1992   1.403       .  A
C1992      H1993   1.085       .  S
C1995      C2426   1.486       .  S
C1995      C2000   1.405       .  A
C1996      C2230   1.480       .  S
C1996      C1997   1.396       .  A
C1997      C1998   1.396       .  A
C1997      H2002   1.085       .  S
C1999      C2000   1.407       .  A
C2000      H2001   1.084       .  S
O2003     Ni2009   1.882       .  S
O2003      C2024   1.255       .  A
O2004     Ni2027   1.897       .  S
O2004      C2013   1.268       .  A
O2005     Ni2009   1.880       .  S
O2005     Ni2027   1.876       .  S
O2005     Ni2021   1.922       .  S
O2005      H2028   0.963       .  S
C2006      O2023   1.281       .  A
C2006      O2015   1.280       .  A
C2006      C2300   1.467       .  S
O2007     Ni2026   1.946       .  S
O2007      C2013   1.278       .  A
O2008     Ni2026   1.911       .  S
O2008      C2010   1.272       .  A
Ni2009     O2012   1.897       .  S
Ni2009     O2014   1.903       .  S
C2010      O2020   1.275       .  A
C2010      C2191   1.481       .  S
O2011     Ni2027   1.940       .  S
O2011      C2017   1.285       .  A
O2012      C2017   1.277       .  A
C2013      C2258   1.472       .  S
O2014      C2016   1.263       .  A
O2015     Ni2026   1.927       .  S
C2016      O2022   1.268       .  A
C2016      C2286   1.495       .  S
C2017      C2219   1.475       .  S
H2018      O2019   0.967       .  S
O2019     Ni2027   1.904       .  S
O2019     Ni2021   1.906       .  S
O2019     Ni2026   1.882       .  S
O2020     Ni2021   1.935       .  S
Ni2021     O2025   1.944       .  S
Ni2021     O2023   1.921       .  S
O2022     Ni2027   1.932       .  S
C2024      O2025   1.274       .  A
C2024      C2202   1.468       .  S
O2029     Ni2035   1.944       .  S
O2029      C2050   1.278       .  A
O2030     Ni2053   1.941       .  S
O2030      C2039   1.276       .  A
O2031     Ni2035   1.890       .  S
O2031     Ni2053   1.901   1_554  S
O2031     Ni2047   1.906       .  S
O2031      H2054   0.966       .  S
C2032      O2049   1.284       .  A
C2032      O2041   1.276       .  A
C2032      C2233   1.484       .  S
O2033     Ni2052   1.901       .  S
O2033      C2039   1.262       .  A
O2034     Ni2052   1.900       .  S
O2034      C2036   1.264   1_556  A
Ni2035     O2038   1.935       .  S
Ni2035     O2040   1.926   1_554  S
C2036      O2046   1.270       .  A
C2036      C2160   1.487       .  S
O2037     Ni2053   1.933   1_554  S
O2037      C2043   1.287       .  A
O2038      C2043   1.282       .  A
C2039      C2244   1.470       .  S
O2040      C2042   1.273       .  A
O2041     Ni2052   1.906       .  S
C2042      O2048   1.270       .  A
C2042      C2272   1.488       .  S
C2043      C2174   1.486       .  S
H2044      O2045   0.967       .  S
O2045     Ni2053   1.923       .  S
O2045     Ni2047   1.878   1_556  S
O2045     Ni2052   1.883       .  S
O2046     Ni2047   1.933       .  S
Ni2047     O2051   1.891       .  S
Ni2047     O2049   1.939   1_554  S
O2048     Ni2053   1.920       .  S
C2050      O2051   1.268       .  A
C2050      C2149   1.478       .  S
O2055     Ni2063   1.908       .  S
O2055      C2065   1.267       .  A
O2056      C2066   1.242       .  A
O2057     Ni2063   1.859       .  S
O2057      C2067   1.250       .  A
O2058      C2068   1.268       .  A
O2059      C2068   1.289       .  A
O2060     Ni2064   1.987       .  S
O2060      C2067   1.295       .  A
O2061      C2066   1.297       .  A
O2062     Ni2064   1.973       .  S
O2062      C2065   1.292       .  A
Ni2063    Ni2064   2.345       .  S
C2065      C2108   1.535       .  S
C2066      C2116   1.491       .  S
C2067      C2086   1.504       .  S
C2068      C2124   1.548       .  S
O2069     Ni2077   1.954       .  S
O2069      C2079   1.292       .  A
O2070     Ni2077   1.957       .  S
O2070      C2080   1.292       .  A
O2071     Ni2077   1.976       .  S
O2071      C2081   1.292       .  A
O2072     Ni2077   1.975       .  S
O2072      C2082   1.292       .  A
O2073     Ni2078   1.864       .  S
O2073      C2082   1.251       .  A
O2074     Ni2078   1.865       .  S
O2074      C2081   1.252       .  A
O2075     Ni2078   1.896       .  S
O2075      C2080   1.264       .  A
O2076     Ni2078   1.893       .  S
O2076      C2079   1.263       .  A
Ni2077    Ni2078   2.298       .  S
C2079      C2132   1.494       .  S
C2080      C2109   1.500       .  S
C2081      C2140   1.517       .  S
C2082      C2087   1.515       .  S
C2083      C2216   1.479       .  S
C2083      C2088   1.395       .  A
C2084      C2328   1.491       .  S
C2084      C2085   1.405       .  A
C2085      C2086   1.405       .  A
C2085      H2090   1.084       .  S
C2087      C2088   1.393       .  A
C2088      H2089   1.085       .  S
O2091     Ni2099   1.902       .  S
O2091      C2101   1.266       .  A
O2092      C2102   1.238       .  A
O2093     Ni2099   1.856       .  S
O2093      C2103   1.250       .  A
O2094      C2104   1.266       .  A
O2095      C2104   1.288       .  A
O2096     Ni2100   1.991       .  S
O2096      C2103   1.296       .  A
O2097      C2102   1.297       .  A
O2098     Ni2100   1.964       .  S
O2098      C2101   1.292       .  A
Ni2099    Ni2100   2.345       .  S
C2101      C2133   1.526       .  S
C2102      C2125   1.483       .  S
C2103      C2141   1.508       .  S
C2104      C2117   1.548       .  S
C2105      C2177   1.490       .  S
C2105      C2110   1.397       .  A
C2106      C2440   1.487       .  S
C2106      C2107   1.414       .  A
C2107      C2108   1.418       .  A
C2107      H2112   1.084       .  S
C2109      C2110   1.403       .  A
C2110      H2111   1.085       .  S
C2113      C2370   1.493       .  S
C2113      C2114   1.419       .  A
C2113      C2118   1.411       .  A
C2114      C2188   1.496       .  S
C2114      C2115   1.401       .  A
C2115      C2116   1.403       .  A
C2115      H2120   1.085       .  S
C2116      C2117   1.468       .  A
C2117      C2118   1.408       .  A
C2118      H2119   1.083       .  S
C2121      C2415   1.491       .  S
C2121      C2122   1.417       .  A
C2121      C2126   1.396       .  A
C2122      C2146   1.488       .  S
C2122      C2123   1.409       .  A
C2123      C2124   1.406       .  A
C2123      H2128   1.084       .  S
C2124      C2125   1.469       .  A
C2125      C2126   1.399       .  A
C2126      H2127   1.085       .  S
C2129      C2205   1.472       .  S
C2129      C2134   1.404       .  A
C2130      C2359   1.489       .  S
C2130      C2131   1.394       .  A
C2131      C2132   1.403       .  A
C2131      H2136   1.085       .  S
C2133      C2134   1.411       .  A
C2134      H2135   1.084       .  S
C2137      C2163   1.476       .  S
C2137      C2142   1.403       .  A
C2138      C2454   1.479       .  S
C2138      C2139   1.394       .  A
C2139      C2140   1.398       .  A
C2139      H2144   1.084       .  S
C2141      C2142   1.404       .  A
C2142      H2143   1.084       .  S
C2145      C2146   1.403       .  A
C2145      C2150   1.400       .  A
C2145      H2152   1.084       .  S
C2146      C2147   1.420       .  A
C2147      C2148   1.401       .  A
C2147      N2154   1.441       .  S
C2148      C2149   1.404       .  A
C2148      H2153   1.085       .  S
C2149      C2150   1.419       .  A
C2150      N2151   1.440       .  S
N2151      H2155   1.046       .  S
N2151      H2156   1.041       .  S
N2154      H2157   1.041       .  S
N2154      H2158   1.046       .  S
C2159      C2160   1.408       .  A
C2159      C2164   1.393       .  A
C2159      H2166   1.084       .  S
C2160      C2161   1.414       .  A
C2161      C2162   1.410       .  A
C2161      N2168   1.437       .  S
C2162      C2163   1.403       .  A
C2162      H2167   1.084       .  S
C2163      C2164   1.412       .  A
C2164      N2165   1.441       .  S
N2165      H2169   1.046       .  S
N2165      H2170   1.042       .  S
N2168      H2171   1.046       .  S
N2168      H2172   1.046       .  S
C2173      C2174   1.406       .  A
C2173      C2178   1.409       .  A
C2173      H2180   1.084       .  S
C2174      C2175   1.425       .  A
C2175      C2176   1.398       .  A
C2175      N2182   1.438       .  S
C2176      C2177   1.398       .  A
C2176      H2181   1.084       .  S
C2177      C2178   1.409       .  A
C2178      N2179   1.431       .  S
N2179      H2183   1.046       .  S
N2179      H2184   1.046       .  S
N2182      H2185   1.038       .  S
N2182      H2186   1.046       .  S
C2187      C2188   1.407       .  A
C2187      C2192   1.407       .  A
C2187      H2194   1.084       .  S
C2188      C2189   1.417       .  A
C2189      C2190   1.400       .  A
C2189      N2196   1.439       .  S
C2190      C2191   1.404       .  A
C2190      H2195   1.085       .  S
C2191      C2192   1.417       .  A
C2192      N2193   1.439       .  S
N2193      H2197   1.045       .  S
N2193      H2198   1.042       .  S
N2196      H2199   1.042       .  S
N2196      H2200   1.046       .  S
C2201      C2202   1.405       .  A
C2201      C2206   1.412       .  A
C2201      H2208   1.084       .  S
C2202      C2203   1.418       .  A
C2203      C2204   1.385       .  A
C2203      N2210   1.436       .  S
C2204      C2205   1.392       .  A
C2204      H2209   1.085       .  S
C2205      C2206   1.411       .  A
N2207      H2211   1.046       .  S
N2207      H2212   1.046       .  S
N2210      H2213   1.043       .  S
N2210      H2214   1.045       .  S
C2215      C2216   1.403       .  A
C2215      C2220   1.399       .  A
C2215      H2222   1.084       .  S
C2216      C2217   1.407       .  A
C2217      C2218   1.403       .  A
C2218      C2219   1.408       .  A
C2218      H2223   1.084       .  S
C2219      C2220   1.411       .  A
C2220      N2221   1.438       .  S
N2221      H2225   1.046       .  S
N2221      H2226   1.046       .  S
N2224      H2227   1.045       .  S
N2224      H2228   1.045       .  S
C2229      C2230   1.399       .  A
C2229      C2234   1.398       .  A
C2229      H2236   1.084       .  S
C2230      C2231   1.409       .  A
C2231      C2232   1.402       .  A
C2231      N2238   1.439       .  S
C2232      C2233   1.406       .  A
C2232      H2237   1.084       .  S
C2233      C2234   1.421       .  A
C2234      N2235   1.433       .  S
N2235      H2239   1.044       .  S
N2235      H2240   1.046       .  S
N2238      H2241   1.045       .  S
N2238      H2242   1.046       .  S
C2243      C2244   1.403       .  A
C2243      C2248   1.407       .  A
C2243      H2250   1.084       .  S
C2244      C2245   1.407       .  A
C2245      C2246   1.399       .  A
C2245      N2252   1.433   1_556  S
C2246      C2247   1.402       .  A
C2246      H2251   1.084       .  S
C2247      C2248   1.418       .  A
N2249      H2253   1.046       .  S
N2249      H2254   1.043       .  S
N2252      H2255   1.046       .  S
N2252      H2256   1.046       .  S
C2257      C2258   1.401       .  A
C2257      C2262   1.402       .  A
C2257      H2264   1.084       .  S
C2258      C2259   1.416       .  A
C2259      C2260   1.405       .  A
C2259      N2266   1.438       .  S
C2260      C2261   1.406       .  A
C2260      H2265   1.083       .  S
C2261      C2262   1.409       .  A
C2262      N2263   1.433       .  S
N2263      H2267   1.045       .  S
N2263      H2268   1.046       .  S
N2266      H2269   1.043       .  S
N2266      H2270   1.046       .  S
C2271      C2272   1.405       .  A
C2271      C2276   1.413       .  A
C2271      H2278   1.084       .  S
C2272      C2273   1.416       .  A
C2273      C2274   1.400       .  A
C2273      N2280   1.440       .  S
C2274      C2275   1.405       .  A
C2274      H2279   1.083       .  S
C2275      C2276   1.416       .  A
C2276      N2277   1.431       .  S
N2277      H2281   1.045       .  S
N2277      H2282   1.046       .  S
N2280      H2283   1.046       .  S
N2280      H2284   1.045       .  S
C2285      C2286   1.409       .  A
C2285      C2290   1.399       .  A
C2285      H2292   1.084       .  S
C2286      C2287   1.418       .  A
C2287      C2288   1.409       .  A
C2287      N2294   1.438       .  S
C2288      C2289   1.403       .  A
C2288      H2293   1.084       .  S
C2289      C2290   1.415       .  A
C2290      N2291   1.438       .  S
N2291      H2295   1.045   1_565  S
N2291      H2296   1.043       .  S
N2294      H2297   1.045       .  S
N2294      H2298   1.046       .  S
C2299      C2300   1.401       .  A
C2299      C2304   1.402       .  A
C2299      H2306   1.084       .  S
C2300      C2301   1.410       .  A
C2301      C2302   1.401       .  A
C2301      N2308   1.433       .  S
C2302      C2303   1.406       .  A
C2302      H2307   1.082       .  S
C2303      C2304   1.408       .  A
C2304      N2305   1.432       .  S
N2305      H2309   1.046       .  S
N2305      H2310   1.046       .  S
N2308      H2311   1.045       .  S
N2308      H2312   1.046       .  S
C2313      C2314   1.404       .  A
C2313      C2318   1.410       .  A
C2313      H2320   1.084       .  S
C2314      C2315   1.410       .  A
C2315      C2316   1.392       .  A
C2315      N2322   1.434       .  S
C2316      C2317   1.395       .  A
C2317      C2318   1.411       .  A
C2318      N2319   1.437       .  S
N2319      H2323   1.045       .  S
N2319      H2324   1.044       .  S
N2322      H2325   1.046       .  S
N2322      H2326   1.045       .  S
C2327      C2328   1.401       .  A
C2327      C2332   1.401       .  A
C2327      H2334   1.083       .  S
C2328      C2329   1.418       .  A
C2329      C2330   1.406       .  A
C2329      N2336   1.438       .  S
C2330      C2331   1.408       .  A
C2330      H2335   1.083       .  S
C2331      C2332   1.418       .  A
C2332      N2333   1.438       .  S
N2333      H2337   1.046       .  S
N2333      H2338   1.046       .  S
N2336      H2339   1.043       .  S
N2336      H2340   1.045       .  S
C2341      C2342   1.404       .  A
C2341      C2346   1.402       .  A
C2341      H2348   1.084       .  S
C2342      C2343   1.403       .  A
C2343      C2344   1.399       .  A
C2343      N2350   1.432       .  S
C2344      C2345   1.407       .  A
C2344      H2349   1.084       .  S
C2345      C2346   1.411       .  A
C2346      N2347   1.433       .  S
N2347      H2351   1.046       .  S
N2347      H2352   1.046       .  S
N2350      H2353   1.045       .  S
N2350      H2354   1.046       .  S
C2355      C2356   1.405       .  A
C2355      C2360   1.403       .  A
C2355      H2362   1.084       .  S
C2356      C2357   1.415       .  A
C2357      C2358   1.401       .  A
C2357      N2364   1.437       .  S
C2358      C2359   1.404       .  A
C2358      H2363   1.080       .  S
C2359      C2360   1.407       .  A
C2360      N2361   1.438       .  S
N2361      H2365   1.045       .  S
N2361      H2366   1.045       .  S
N2364      H2367   1.043       .  S
N2364      H2368   1.044       .  S
C2369      C2370   1.405       .  A
C2369      C2374   1.407       .  A
C2369      H2376   1.083       .  S
C2370      C2371   1.414       .  A
C2371      C2372   1.404       .  A
C2371      N2378   1.439       .  S
C2372      C2373   1.404       .  A
C2372      H2377   1.084       .  S
C2373      C2374   1.413       .  A
C2374      N2375   1.438       .  S
N2375      H2379   1.046       .  S
N2375      H2380   1.046       .  S
N2378      H2381   1.044       .  S
N2378      H2382   1.046       .  S
C2383      C2384   1.397       .  A
C2383      C2388   1.393       .  A
C2383      H2390   1.077       .  S
C2384      C2385   1.416       .  A
C2385      C2386   1.413       .  A
C2385      N2392   1.437       .  S
C2386      C2387   1.411       .  A
C2386      H2391   1.084       .  S
C2387      C2388   1.415       .  A
C2388      N2389   1.434       .  S
N2389      H2393   1.043       .  S
N2389      H2394   1.045       .  S
N2392      H2395   1.044       .  S
N2392      H2396   1.045       .  S
C2397      C2398   1.405       .  A
C2397      C2402   1.409       .  A
C2397      H2404   1.083       .  S
C2398      C2399   1.404       .  A
C2399      C2400   1.399       .  A
C2399      N2406   1.432       .  S
C2400      C2401   1.403       .  A
C2400      H2405   1.083       .  S
C2401      C2402   1.409       .  A
C2402      N2403   1.437       .  S
N2403      H2407   1.046       .  S
N2403      H2408   1.045       .  S
N2406      H2409   1.046       .  S
N2406      H2410   1.045       .  S
C2411      C2412   1.404       .  A
C2411      C2416   1.400       .  A
C2411      H2418   1.084       .  S
C2412      C2413   1.416       .  A
C2413      C2414   1.409       .  A
C2413      N2420   1.437       .  S
C2414      C2415   1.408       .  A
C2414      H2419   1.084       .  S
C2415      C2416   1.406       .  A
C2416      N2417   1.432       .  S
N2417      H2421   1.046       .  S
N2417      H2422   1.045       .  S
N2420      H2423   1.043       .  S
N2420      H2424   1.046       .  S
C2425      C2426   1.398       .  A
C2425      C2430   1.397       .  A
C2425      H2432   1.083       .  S
C2426      C2427   1.410       .  A
C2427      C2428   1.412       .  A
C2427      N2434   1.437       .  S
C2428      C2429   1.410       .  A
C2428      H2433   1.083       .  S
C2429      C2430   1.418       .  A
C2430      N2431   1.433       .  S
N2431      H2435   1.046       .  S
N2431      H2436   1.046   1_556  S
N2434      H2437   1.046       .  S
N2434      H2438   1.046       .  S
C2439      C2440   1.404       .  A
C2439      C2444   1.407       .  A
C2440      C2441   1.407       .  A
C2441      C2442   1.400       .  A
C2441      N2448   1.432       .  S
C2442      C2443   1.403       .  A
C2442      H2447   1.085       .  S
C2443      C2444   1.419       .  A
C2444      N2445   1.439       .  S
N2445      H2449   1.045       .  S
N2445      H2450   1.043       .  S
N2448      H2451   1.046       .  S
N2448      H2452   1.045       .  S
C2453      C2454   1.402       .  A
C2453      C2458   1.405       .  A
C2453      H2460   1.084       .  S
C2454      C2455   1.402       .  A
C2455      C2456   1.400       .  A
C2456      C2457   1.410       .  A
C2456      H2461   1.084       .  S
C2457      C2458   1.415       .  A
C2458      N2459   1.437       .  S
N2459      H2463   1.046       .  S
N2459      H2464   1.046       .  S
N2462      H2465   1.046       .  S
N2462      H2466   1.046       .  S
C2467      C2468   1.399       .  A
C2467      C2472   1.397       .  A
C2467      H2474   1.084       .  S
C2468      C2469   1.415       .  A
C2469      C2470   1.403       .  A
C2469      N2476   1.438       .  S
C2470      C2471   1.405       .  A
C2470      H2475   1.084       .  S
C2471      C2472   1.409       .  A
C2472      N2473   1.433       .  S
N2473      H2477   1.045       .  S
N2473      H2478   1.046       .  S
N2476      H2479   1.043   1_556  S
N2476      H2480   1.045       .  S
