geometry optimzed in LAMMPS
_audit_creation_date              2020-11-30 
_audit_creation_method            'lammps2cif' 
_symmetry_space_group_name_H-M    'P1' 
_symmetry_Int_Tables_number       1 
_symmetry_cell_setting            triclinic 
loop_ 
_symmetry_equiv_pos_as_xyz 
  x,y,z 
_cell_length_a                    34.93361635661115 
_cell_length_b                    34.68110237904317 
_cell_length_c                    22.244121138865687 
_cell_angle_alpha                 90.32182452598461 
_cell_angle_beta                  89.96837021795794 
_cell_angle_gamma                 119.3185520214431 
loop_ 
_atom_site_label 
_atom_site_type_symbol 
_atom_site_fract_x 
_atom_site_fract_y 
_atom_site_fract_z 
_atom_site_charge 
C1          C  0.97902534  0.48065434  0.48881343     0.01510
C2          C  0.01678261  0.52122622  0.48878254     0.01510
C3          C  0.49973535  0.51910367  0.99024045     0.01510
C4          C  0.49223478  0.47605845  0.98958058     0.01510
C5          C  0.98363987  0.51405692  0.98666119     0.01510
C6          C  0.01859905  0.50598613  0.98893041     0.01510
N7          N  0.80727393  0.27252901  0.32217240    -0.26340
N8          N  0.83828651  0.26566726  0.34516719    -0.34200
C9          C  0.86681971  0.30198022  0.37573598     0.02000
C10         C  0.85309504  0.33318720  0.37223876     0.08020
C11         C  0.81521788  0.31345579  0.33772418    -0.05080
H12         H  0.89745354  0.30689167  0.39460139     0.08690
H13         H  0.79710673  0.32902831  0.32082063     0.09890
Cu14       Cu  0.84616695  0.21164003  0.32252738     0.44170
Cu15       Cu  0.76144401  0.22829752  0.26171687     0.41990
Cu16       Cu  0.80775134  0.17020681  0.17505327     0.43880
N17         N  0.86067697  0.16755075  0.27773639    -0.33730
N18         N  0.85223960  0.15789560  0.22021762    -0.27980
C19         C  0.86893249  0.13195045  0.20281289    -0.04080
C20         C  0.88784166  0.12330207  0.25240259     0.08130
C21         C  0.88125461  0.14643554  0.29915106     0.01930
H22         H  0.86643488  0.11989757  0.15732184     0.09580
H23         H  0.88949176  0.14710814  0.34598645     0.08660
N24         N  0.74455786  0.15997682  0.16528253    -0.35180
N25         N  0.72697423  0.17900690  0.19852316    -0.27360
C26         C  0.68374643  0.15962736  0.18647245    -0.02600
C27         C  0.67369366  0.12685267  0.14367099     0.06010
C28         C  0.71307994  0.12820596  0.13118481     0.04100
H29         H  0.66114452  0.16808185  0.20836249     0.09210
H30         H  0.71833425  0.10688480  0.10066984     0.08040
N31         N  0.18191598  0.71943589  0.28329731    -0.26340
N32         N  0.14711084  0.72068218  0.26271335    -0.34200
C33         C  0.11053261  0.68501624  0.28169421     0.02000
C34         C  0.12198704  0.66038134  0.31904835     0.08020
C35         C  0.16793181  0.68340397  0.31839503    -0.05080
H36         H  0.07795640  0.67912932  0.27106634     0.08690
H37         H  0.18973525  0.67594321  0.34408624     0.09890
Cu38       Cu  0.14879669  0.77728345  0.23140312     0.44170
Cu39       Cu  0.24623335  0.76932861  0.26329885     0.41990
Cu40       Cu  0.25005489  0.87570107  0.25308663     0.43880
N41         N  0.15301094  0.83819154  0.24516066    -0.33730
N42         N  0.19025653  0.87475035  0.25649670    -0.27980
C43         C  0.18157703  0.90795934  0.26772410    -0.04080
C44         C  0.13662580  0.89100757  0.26352185     0.08130
C45         C  0.11963098  0.84683818  0.24910546     0.01930
H46         H  0.20606989  0.94186184  0.27700827     0.09580
H47         H  0.08542513  0.82272253  0.24207288     0.08660
N48         N  0.30226789  0.86564279  0.23107836    -0.35180
N49         N  0.30141266  0.82709267  0.23213626    -0.27360
C50         C  0.33868142  0.83209038  0.20628828    -0.02600
C51         C  0.36413165  0.87599362  0.18854964     0.06010
C52         C  0.33970736  0.89585277  0.20541274     0.04100
H53         H  0.34598150  0.80547970  0.19933908     0.09210
H54         H  0.34732079  0.92942154  0.19583281     0.08040
C55         C  0.97152261  0.01220426  0.27811683     0.03230
C56         C  0.95013898  0.96506624  0.28498934     0.03230
C57         C  0.97559351  0.94258161  0.29002205     0.03230
C58         C  0.02182822  0.96749912  0.27931994     0.03230
C59         C  0.04263267  0.01393783  0.27071465     0.03230
C60         C  0.01803060  0.03642092  0.27292133     0.03230
N61         N  0.53496333  0.71227970  0.21193252    -0.26340
N62         N  0.57387650  0.71491598  0.20752351    -0.34200
C63         C  0.56946439  0.67741790  0.18398212     0.02000
C64         C  0.52553593  0.64862502  0.17322173     0.08020
C65         C  0.50442116  0.67190123  0.19211746    -0.05080
H66         H  0.59690194  0.67274227  0.17174156     0.08690
H67         H  0.46972248  0.66115226  0.18970201     0.09890
Cu68       Cu  0.63320520  0.76933089  0.22609489     0.44170
Cu69       Cu  0.52775392  0.76688926  0.23672076     0.41990
Cu70       Cu  0.63568044  0.86904911  0.25101397     0.43880
N71         N  0.69118609  0.82673820  0.23845863    -0.33730
N72         N  0.69250515  0.86504559  0.24632495    -0.27980
C73         C  0.73441360  0.89668882  0.25441352    -0.04080
C74         C  0.76056219  0.87694487  0.25156923     0.08130
C75         C  0.73202311  0.83254966  0.24139536     0.01930
H76         H  0.74491965  0.93118350  0.26305157     0.09580
H77         H  0.74015991  0.80627337  0.23795686     0.08660
N78         N  0.57575632  0.86474536  0.26824026    -0.35180
N79         N  0.53673407  0.82910805  0.26274370    -0.27360
C80         C  0.50625233  0.83889825  0.28382991    -0.02600
C81         C  0.52730643  0.88240102  0.30507118     0.06010
C82         C  0.57125927  0.89732775  0.29383068     0.04100
H83         H  0.47159313  0.81526155  0.28594574     0.09210
H84         H  0.59864090  0.92867357  0.30769266     0.08040
N85         N  0.27340977  0.44993906  0.28904150    -0.26340
N86         N  0.25847556  0.41627338  0.32634068    -0.34200
C87         C  0.29152899  0.41851686  0.35905714     0.02000
C88         C  0.33073010  0.45388023  0.33992797     0.08020
C89         C  0.31754513  0.47351282  0.29545849    -0.05080
H90         H  0.28683729  0.39464331  0.39323631     0.08690
H91         H  0.33810423  0.50164926  0.26796627     0.09890
Cu92       Cu  0.19889761  0.35990777  0.31887469     0.44170
Cu93       Cu  0.23005519  0.45967575  0.23350634     0.41990
Cu94       Cu  0.13022534  0.35367750  0.20186748     0.43880
N95         N  0.15086300  0.30042190  0.28559628    -0.33730
N96         N  0.12357504  0.29795792  0.24306974    -0.27980
C97         C  0.09553504  0.25530283  0.23076345    -0.04080
C98         C  0.10678869  0.22943880  0.26599143     0.08130
C99         C  0.14240778  0.25949157  0.29986708     0.01930
H100        H  0.06913870  0.24419143  0.19835184     0.09580
H101        H  0.16151856  0.25241805  0.33163621     0.08660
N102        N  0.13974157  0.41441515  0.17582033    -0.35180
N103        N  0.17366829  0.45329134  0.18973916    -0.27360
C104        C  0.16428230  0.48505557  0.17234309    -0.02600
C105        C  0.12268664  0.46485661  0.14586924     0.06010
C106        C  0.10894153  0.42020660  0.14825040     0.04100
H107        H  0.18564422  0.52004497  0.17985178     0.09210
H108        H  0.07805363  0.39337526  0.13222167     0.08040
N109        N  0.45027746  0.27588395  0.19432465    -0.26340
N110        N  0.41197683  0.26805247  0.17198249    -0.34200
C111        C  0.41584310  0.30512535  0.14837107     0.02000
C112        C  0.45836853  0.33854423  0.15601129     0.08020
C113        C  0.47959327  0.31891223  0.18521906    -0.05080
H114        H  0.38957669  0.30721683  0.12555600     0.08690
H115        H  0.51380670  0.33451049  0.19823983     0.09890
Cu116      Cu  0.35347760  0.20996894  0.17268395     0.44170
Cu117      Cu  0.46084866  0.22772354  0.23600578     0.41990
Cu118      Cu  0.35454483  0.13378731  0.26645421     0.43880
N119        N  0.29650611  0.15310223  0.19161760    -0.33730
N120        N  0.29783812  0.12328206  0.22649021    -0.27980
C121        C  0.25698890  0.09175079  0.23903600    -0.04080
C122        C  0.22831669  0.10308200  0.21210052     0.08130
C123        C  0.25439189  0.14205996  0.18177946     0.01930
H124        H  0.24888106  0.06511196  0.27037419     0.09580
H125        H  0.24378393  0.16279083  0.15931038     0.08660
N126        N  0.41202198  0.14097760  0.29907678    -0.35180
N127        N  0.45179143  0.17206574  0.28407293    -0.27360
C128        C  0.48092026  0.16072648  0.30621252    -0.02600
C129        C  0.45775695  0.12078349  0.33685811     0.06010
C130        C  0.41442553  0.11035870  0.33225523     0.04100
H131        H  0.51603091  0.17964139  0.29946598     0.09210
H132        H  0.38608248  0.08176710  0.35040248     0.08040
N133        N  0.72490480  0.53791086  0.31411519    -0.26340
N134        N  0.73967943  0.57074876  0.35344981    -0.34200
C135        C  0.70565786  0.57022653  0.38166953     0.02000
C136        C  0.66703888  0.53708501  0.35701905     0.08020
C137        C  0.68059479  0.51657221  0.31477139    -0.05080
H138        H  0.70899998  0.59527909  0.41362876     0.08690
H139        H  0.66022564  0.49068773  0.28342425     0.09890
Cu140      Cu  0.79927188  0.62787875  0.34617027     0.44170
Cu141      Cu  0.76736207  0.53008225  0.25658130     0.41990
Cu142      Cu  0.83205086  0.63649194  0.19428664     0.43880
N143        N  0.82678956  0.68663228  0.29920590    -0.33730
N144        N  0.83192957  0.68805411  0.24044466    -0.27980
C145        C  0.84802706  0.72990117  0.22188445    -0.04080
C146        C  0.85546850  0.75691857  0.27188696     0.08130
C147        C  0.84081046  0.72777630  0.32002034     0.01930
H148        H  0.85703544  0.73998568  0.17588749     0.09580
H149        H  0.84346319  0.73607392  0.36724881     0.08660
N150        N  0.84735189  0.58641365  0.18400452    -0.35180
N151        N  0.82402182  0.54686135  0.20797194    -0.27360
C152        C  0.84332029  0.52243902  0.19501065    -0.02600
C153        C  0.88061750  0.54806236  0.16114088     0.06010
C154        C  0.88210406  0.58841548  0.15532978     0.04100
H155        H  0.83040454  0.48818450  0.20755880     0.09210
H156        H  0.90578434  0.61661406  0.13010196     0.08040
N157        N  0.72026312  0.18393628  0.79713757    -0.26340
N158        N  0.73429756  0.16648451  0.83851114    -0.34200
C159        C  0.70069368  0.13821583  0.87215297     0.02000
C160        C  0.66210490  0.13426622  0.84969545     0.08020
C161        C  0.67588910  0.16484955  0.80262183    -0.05080
H162        H  0.70376743  0.11817187  0.90684838     0.08690
H163        H  0.65512909  0.17074197  0.77227587     0.09890
Cu164      Cu  0.79235708  0.16475473  0.83815534     0.44170
Cu165      Cu  0.76505529  0.23112392  0.73480266     0.41990
Cu166      Cu  0.87470304  0.24031756  0.75807640     0.43880
N167        N  0.84651828  0.15759972  0.82117731    -0.33730
N168        N  0.88013669  0.18945691  0.79318644    -0.27980
C169        C  0.90998704  0.17690212  0.78112513    -0.04080
C170        C  0.89385962  0.13417569  0.80161592     0.08130
C171        C  0.85338983  0.12292163  0.82701343     0.01930
H172        H  0.93981616  0.19641612  0.75596000     0.09580
H173        H  0.82968692  0.09117098  0.84500014     0.08660
N174        N  0.86173539  0.27696588  0.69931791    -0.35180
N175        N  0.82385859  0.27573055  0.68868507    -0.27360
C176        C  0.83145983  0.30694484  0.64676779    -0.02600
C177        C  0.87575735  0.32724634  0.63033289     0.06010
C178        C  0.89331709  0.30722768  0.66487356     0.04100
H179        H  0.80703713  0.31497406  0.63042889     0.09210
H180        H  0.92741534  0.31534777  0.66679483     0.08040
N181        N  0.27880915  0.82963515  0.79041752    -0.26340
N182        N  0.27869434  0.86730237  0.78135095    -0.34200
C183        C  0.30940949  0.89960736  0.81511196     0.02000
C184        C  0.33089995  0.88252808  0.84732753     0.08020
C185        C  0.31129858  0.83805462  0.83035536    -0.05080
H186        H  0.31622897  0.93357003  0.81503351     0.08690
H187        H  0.32027343  0.81394055  0.84555164     0.09890
Cu188      Cu  0.23844643  0.87835067  0.72710083     0.44170
Cu189      Cu  0.23358636  0.76938725  0.74672087     0.41990
Cu190      Cu  0.16136748  0.79312574  0.65103533     0.43880
N191        N  0.18498075  0.88102265  0.69739717    -0.33730
N192        N  0.15303526  0.84646351  0.67041561    -0.27980
C193        C  0.11721905  0.85136603  0.66862630    -0.04080
C194        C  0.12775634  0.89140499  0.69593413     0.08130
C195        C  0.17119781  0.90949353  0.71310694     0.01930
H196        H  0.08529565  0.82645402  0.65263566     0.09580
H197        H  0.19033388  0.93941577  0.73901977     0.08660
N198        N  0.16409582  0.73539098  0.64931503    -0.35180
N199        N  0.18447057  0.72261157  0.68783029    -0.27360
C200        C  0.16687226  0.67803812  0.68185116    -0.02600
C201        C  0.13428268  0.66302748  0.63736081     0.06010
C202        C  0.13507027  0.70087219  0.61714928     0.04100
H203        H  0.17520798  0.65788269  0.71000320     0.09210
H204        H  0.11291786  0.70275048  0.58483980     0.08040
C205        C  0.97870418  0.02593301  0.76996642     0.03230
C206        C  0.95363999  0.97887834  0.76275821     0.03230
C207        C  0.97586644  0.95406305  0.75168065     0.03230
C208        C  0.02282234  0.97634571  0.74736099     0.03230
C209        C  0.04793561  0.02334786  0.75505645     0.03230
C210        C  0.02578061  0.04806807  0.76666620     0.03230
N211        N  0.45763897  0.28394943  0.76718166    -0.26340
N212        N  0.42091488  0.28270450  0.74950116    -0.34200
C213        C  0.42088992  0.31958017  0.76811871     0.02000
C214        C  0.45854055  0.34503004  0.80151310     0.08020
C215        C  0.48141460  0.32155429  0.79920950    -0.05080
H216        H  0.39315227  0.32511638  0.76311928     0.08690
H217        H  0.51116927  0.32932278  0.82359612     0.09890
Cu218      Cu  0.36528480  0.22564148  0.72177533     0.44170
Cu219      Cu  0.46881359  0.23013580  0.75369558     0.41990
Cu220      Cu  0.36644633  0.12848310  0.77106813     0.43880
N221        N  0.30884982  0.16461521  0.72819586    -0.33730
N222        N  0.30905522  0.12926165  0.74969562    -0.27980
C223        C  0.26742921  0.09605965  0.75395278    -0.04080
C224        C  0.23980704  0.11134807  0.73406088     0.08130
C225        C  0.26706455  0.15497846  0.71847915     0.01930
H226        H  0.25790571  0.06365875  0.77185067     0.09580
H227        H  0.25715626  0.17854708  0.70417082     0.08660
N228        N  0.42560860  0.13058651  0.75351205    -0.35180
N229        N  0.46201295  0.16704620  0.73908526    -0.27360
C230        C  0.48778111  0.15546447  0.70702558    -0.02600
C231        C  0.46651849  0.10957343  0.70152955     0.06010
C232        C  0.42786587  0.09528338  0.73321162     0.04100
H233        H  0.51715450  0.17869876  0.68343979     0.09210
H234        H  0.40023034  0.06204768  0.73284044     0.08040
N235        N  0.28385146  0.45672507  0.71430820    -0.26340
N236        N  0.28450899  0.41896801  0.71212508    -0.34200
C237        C  0.32079597  0.42505545  0.68384514     0.02000
C238        C  0.34563791  0.46912955  0.66867744     0.08020
C239        C  0.32096002  0.48833365  0.68864169    -0.05080
H240        H  0.32845452  0.39887915  0.67507610     0.08690
H241        H  0.32943477  0.52270390  0.68578983     0.09890
Cu242      Cu  0.24004721  0.36044633  0.75131204     0.44170
Cu243      Cu  0.23176700  0.46210911  0.75197821     0.41990
Cu244      Cu  0.17002781  0.36857514  0.85338009     0.43880
N245        N  0.19253314  0.30566595  0.79446909    -0.33730
N246        N  0.16474459  0.30838470  0.83192990    -0.27980
C247        C  0.13132695  0.26752969  0.84238486    -0.04080
C248        C  0.13888487  0.23758095  0.81019390     0.08130
C249        C  0.17856103  0.26306742  0.78130781     0.01930
H250        H  0.10195103  0.26059600  0.86700329     0.09580
H251        H  0.19418524  0.25186633  0.74899724     0.08660
N252        N  0.16098019  0.42255083  0.84528806    -0.35180
N253        N  0.17800461  0.45325499  0.80347417    -0.27360
C254        C  0.15509256  0.47532532  0.80221705    -0.02600
C255        C  0.12236035  0.45765901  0.84595813     0.06010
C256        C  0.12848765  0.42522874  0.87297563     0.04100
H257        H  0.16105265  0.50101490  0.77035368     0.09210
H258        H  0.10958015  0.40352857  0.90908566     0.08040
N259        N  0.54541054  0.70633897  0.75522783    -0.26340
N260        N  0.58389806  0.70842995  0.74753743    -0.34200
C261        C  0.58248983  0.67199689  0.77000155     0.02000
C262        C  0.54187182  0.64625151  0.79598963     0.08020
C263        C  0.51883186  0.66871109  0.78482752    -0.05080
H264        H  0.61103523  0.66776873  0.77488439     0.08690
H265        H  0.48699410  0.66075713  0.80273673     0.09890
Cu266      Cu  0.64178192  0.76663358  0.73578993     0.44170
Cu267      Cu  0.53543786  0.75964454  0.73527097     0.41990
Cu268      Cu  0.63371701  0.86277859  0.77052533     0.43880
N269        N  0.69513812  0.82587872  0.76150707    -0.33730
N270        N  0.69202935  0.86116677  0.77642890    -0.27980
C271        C  0.73240369  0.89482740  0.78844185    -0.04080
C272        C  0.76207500  0.87956093  0.78174475     0.08130
C273        C  0.73740100  0.83579358  0.76456144     0.01930
H274        H  0.73990134  0.92845302  0.79781777     0.09580
H275        H  0.74952044  0.81354121  0.75203985     0.08660
N276        N  0.57794693  0.85908681  0.73275241    -0.35180
N277        N  0.54322148  0.82194221  0.71518816    -0.27360
C278        C  0.51871662  0.83209173  0.67849084    -0.02600
C279        C  0.53904217  0.87782543  0.67306330     0.06010
C280        C  0.57604052  0.89356866  0.70900820     0.04100
H281        H  0.49023367  0.80793600  0.65393063     0.09210
H282        H  0.60188490  0.92756880  0.71326988     0.08040
N283        N  0.72193301  0.54665626  0.70087148    -0.26340
N284        N  0.71871683  0.57910930  0.72691878    -0.34200
C285        C  0.68093550  0.57728434  0.71040342     0.02000
C286        C  0.65965120  0.54347170  0.66836013     0.08020
C287        C  0.68725203  0.52484555  0.66393074    -0.05080
H288        H  0.67166852  0.60103570  0.72589767     0.08690
H289        H  0.68438323  0.49943291  0.63304042     0.09890
Cu290      Cu  0.77377769  0.63536633  0.75572562     0.44170
Cu291      Cu  0.77665864  0.53843387  0.71568356     0.41990
Cu292      Cu  0.87365554  0.63958333  0.69373815     0.43880
N293        N  0.83033953  0.69258745  0.73299826    -0.33730
N294        N  0.86531593  0.69406363  0.70756100    -0.27980
C295        C  0.89562974  0.73652671  0.69873732    -0.04080
C296        C  0.87844635  0.76265775  0.71845016     0.08130
C297        C  0.83723077  0.73397320  0.74012388     0.01930
H298        H  0.92848303  0.74759269  0.68212098     0.09580
H299        H  0.81454878  0.74256002  0.76144127     0.08660
N300        N  0.87488909  0.58396618  0.72345858    -0.35180
N301        N  0.83870801  0.54811881  0.73969200    -0.27360
C302        C  0.84955990  0.52532719  0.77857989    -0.02600
C303        C  0.89501454  0.54761464  0.78652682     0.06010
C304        C  0.90968204  0.58401389  0.74911824     0.04100
H305        H  0.82575056  0.49703412  0.80349480     0.09210
H306        H  0.94293448  0.61107485  0.74512459     0.08040
C307        C  0.50057516  0.97878071  0.49808488     0.01510
C308        C  0.49289746  0.01427359  0.50292602     0.01510
C309        C  0.52292619  0.01716374  0.99764065     0.01510
C310        C  0.48125177  0.98106297  0.00285724     0.01510
C311        C  0.47983712  0.50399395  0.49432400     0.01510
C312        C  0.52232447  0.51118185  0.49229075     0.01510
C313        C  0.61972677  0.53317213  0.63020913    -0.04390
C314        C  0.60579827  0.56493734  0.61930757    -0.01510
C315        C  0.56835847  0.55405486  0.58334920     0.03480
C316        C  0.54984122  0.51549428  0.54725050    -0.04390
C317        C  0.56401032  0.48401797  0.55738929    -0.01500
C318        C  0.59532706  0.49112252  0.60245162     0.03480
C319        C  0.63116860  0.61035468  0.63982693     0.38130
C320        C  0.54470080  0.44237009  0.52467473     0.38120
C321        C  0.60078124  0.45403639  0.62109604     0.36540
C322        C  0.54980956  0.58337005  0.58370371     0.36540
N323        N  0.60441860  0.42399430  0.63566349    -0.38280
N324        N  0.53587174  0.60750068  0.58617880    -0.38280
N325        N  0.52992297  0.40804843  0.50155301    -0.37720
N326        N  0.65092731  0.64706911  0.65460912    -0.37730
C327        C  0.52920062  0.90454528  0.62954476    -0.04390
C328        C  0.48720624  0.90084098  0.62680011    -0.01510
C329        C  0.48016892  0.93120235  0.59278184     0.03480
C330        C  0.51231243  0.95948092  0.55119192    -0.04390
C331        C  0.55373738  0.96105152  0.55128530    -0.01500
C332        C  0.56250933  0.93497441  0.59139179     0.03480
C333        C  0.45012134  0.86266790  0.65288605     0.38130
C334        C  0.58832454  0.98996851  0.51061060     0.38120
C335        C  0.60489134  0.93668777  0.58902314     0.36540
C336        C  0.43889087  0.93116606  0.59903951     0.36540
N337        N  0.63863210  0.93803704  0.58685002    -0.38280
N338        N  0.40548242  0.93002236  0.60549906    -0.38280
N339        N  0.61724859  0.01279100  0.47980676    -0.37720
N340        N  0.42041969  0.83097442  0.67129031    -0.37730
C341        C  0.45636161  0.50519229  0.55145060    -0.04390
C342        C  0.44798315  0.47618020  0.60081998    -0.01510
C343        C  0.41701378  0.47142588  0.64510087     0.03480
C344        C  0.38831777  0.48863018  0.63556872    -0.04390
C345        C  0.39877026  0.52032070  0.59006697    -0.01500
C346        C  0.43475651  0.53097196  0.55166400     0.03480
C347        C  0.46664977  0.44728077  0.60590508     0.38130
C348        C  0.37151066  0.54050546  0.57978364     0.38120
C349        C  0.44962589  0.56945434  0.51368224     0.36540
C350        C  0.41429118  0.44801526  0.70041651     0.36540
N351        N  0.46077400  0.60137469  0.48607507    -0.38280
N352        N  0.41243414  0.42954767  0.74444524    -0.38280
N353        N  0.34998694  0.55674559  0.57065741    -0.37720
N354        N  0.47830701  0.42185206  0.61500587    -0.37730
C355        C  0.47338085  0.08305009  0.65366214    -0.04390
C356        C  0.51186630  0.07947127  0.65133451    -0.01510
C357        C  0.51763551  0.05393080  0.60575293     0.03480
C358        C  0.48434839  0.03099499  0.56194364    -0.04390
C359        C  0.44452493  0.03245627  0.56762204    -0.01500
C360        C  0.44014217  0.05996080  0.61058980     0.03480
C361        C  0.54645335  0.10339390  0.69470765     0.38130
C362        C  0.40670841  0.00509136  0.53021578     0.38120
C363        C  0.40221714  0.06665642  0.60736937     0.36540
C364        C  0.55907464  0.05400331  0.60325422     0.36540
N365        N  0.37216482  0.07216206  0.60430451    -0.38280
N366        N  0.59312141  0.05600060  0.60353744    -0.38280
N367        N  0.37489132  0.98358361  0.50310451    -0.37720
N368        N  0.57469044  0.12260038  0.72851807    -0.37730
C369        C  0.09788458  0.04678623  0.74966143    -0.04390
C370        C  0.12570259  0.06560069  0.80075647    -0.01510
C371        C  0.17183893  0.08607588  0.79530966     0.03480
C372        C  0.19130185  0.08869178  0.73920485    -0.04390
C373        C  0.16462688  0.07063284  0.68820547    -0.01500
C374        C  0.11839009  0.04989279  0.69310529     0.03480
C375        C  0.10853420  0.06298192  0.86052872     0.38130
C376        C  0.18502671  0.07340486  0.63029374     0.38120
C377        C  0.09311809  0.03453802  0.63821129     0.36540
C378        C  0.19973601  0.10468214  0.84797176     0.36540
N379        N  0.07581038  0.02507966  0.59186763    -0.38280
N380        N  0.22199878  0.11939317  0.88983852    -0.38280
N381        N  0.20125539  0.07557421  0.58414466    -0.37720
N382        N  0.09908420  0.06171889  0.91061845    -0.37730
C383        C  0.05232785  0.09757537  0.77706557    -0.04390
C384        C  0.05644629  0.11575866  0.83569004    -0.01510
C385        C  0.08482596  0.16128313  0.84667930     0.03480
C386        C  0.10737485  0.18995765  0.79888640    -0.04390
C387        C  0.10020274  0.17289767  0.73982260    -0.01500
C388        C  0.07493006  0.12704552  0.72927596     0.03480
C389        C  0.03497074  0.08788743  0.88678221     0.38130
C390        C  0.11719158  0.20274428  0.68890665     0.38120
C391        C  0.07299702  0.11200279  0.66812379     0.36540
C392        C  0.09227146  0.17816767  0.90793429     0.36540
N393        N  0.07351620  0.10463671  0.61743627    -0.38280
N394        N  0.09818030  0.19143244  0.95683975    -0.38280
N395        N  0.13035309  0.22630170  0.64817393    -0.37720
N396        N  0.02089880  0.06788186  0.93041419    -0.37730
C397        C  0.94972652  0.90424859  0.74365217    -0.04390
C398        C  0.95147287  0.87524058  0.78728708    -0.01510
C399        C  0.92816643  0.82907367  0.77856419     0.03480
C400        C  0.90250140  0.81097224  0.72686141    -0.04390
C401        C  0.89953273  0.83873298  0.68381477    -0.01500
C402        C  0.92298906  0.88504795  0.69181055     0.03480
C403        C  0.97465450  0.89099816  0.84355763     0.38130
C404        C  0.87276314  0.81938666  0.63045004     0.38120
C405        C  0.92096404  0.91180036  0.64372932     0.36540
C406        C  0.92987564  0.79970975  0.82364696     0.36540
N407        N  0.91881429  0.93012512  0.60168000    -0.38280
N408        N  0.93108275  0.77628581  0.85952104    -0.38280
N409        N  0.85150050  0.80397852  0.58790426    -0.37720
N410        N  0.99018575  0.89901531  0.89106236    -0.37730
C411        C  0.90383596  0.95494646  0.76883480    -0.04390
C412        C  0.87630173  0.95872088  0.72464472    -0.01510
C413        C  0.83015540  0.93493893  0.73015063     0.03480
C414        C  0.81046633  0.90647395  0.77884062    -0.04390
C415        C  0.83685152  0.90249177  0.82314489    -0.01500
C416        C  0.88308822  0.92697428  0.81889233     0.03480
C417        C  0.89334369  0.98407825  0.67043528     0.38130
C418        C  0.81615271  0.87371540  0.87412582     0.38120
C419        C  0.90826468  0.92497635  0.86906461     0.36540
C420        C  0.80247780  0.93822919  0.68386405     0.36540
N421        N  0.92561367  0.92330492  0.91245547    -0.38280
N422        N  0.78041750  0.94072754  0.64703363    -0.38280
N423        N  0.79964292  0.85084561  0.91478712    -0.37720
N424        N  0.90187279  0.00118504  0.62406163    -0.37730
C425        C  0.09782777  0.90904352  0.71040385    -0.04390
C426        C  0.07122404  0.91197823  0.66532105    -0.01510
C427        C  0.04508374  0.93170050  0.67783803     0.03480
C428        C  0.04645221  0.95038100  0.73541523    -0.04390
C429        C  0.07239952  0.94584142  0.78099439    -0.01500
C430        C  0.09696004  0.92441647  0.76887181     0.03480
C431        C  0.07254742  0.89685589  0.60464363     0.38130
C432        C  0.07359188  0.96160752  0.84163822     0.38120
C433        C  0.12025979  0.91692080  0.81757329     0.36540
C434        C  0.01989660  0.93498252  0.62864400     0.36540
N435        N  0.13858951  0.91093942  0.85661026    -0.38280
N436        N  0.00271262  0.93707702  0.58533984    -0.38280
N437        N  0.07532571  0.97157073  0.89170043    -0.37720
N438        N  0.07363209  0.88495961  0.55627677    -0.37730
C439        C  0.44728109  0.96558962  0.95287339    -0.04390
C440        C  0.44994737  0.94418953  0.89950135    -0.01510
C441        C  0.41182503  0.91789040  0.86509859     0.03480
C442        C  0.37039927  0.90971006  0.88482619    -0.04390
C443        C  0.36775630  0.93316952  0.93495564    -0.01500
C444        C  0.40613523  0.96263666  0.96667156     0.03480
C445        C  0.49004891  0.94601703  0.87913274     0.38130
C446        C  0.32524133  0.92612139  0.95491152     0.38120
C447        C  0.40283139  0.98986428  0.01388770     0.36540
C448        C  0.41526853  0.90060823  0.80737121     0.36540
N449        N  0.39908511  0.01151993  0.05064838    -0.38280
N450        N  0.41760018  0.88755767  0.76050536    -0.38280
N451        N  0.29127278  0.92017598  0.97099886    -0.37720
N452        N  0.51930614  0.94440554  0.85730969    -0.37730
C453        C  0.91398099  0.10541302  0.79297411    -0.04390
C454        C  0.93266547  0.10412480  0.73726236    -0.01510
C455        C  0.95459642  0.07937175  0.73059513     0.03480
C456        C  0.95559773  0.05283048  0.77824623    -0.04390
C457        C  0.93425756  0.05231274  0.83293713    -0.01500
C458        C  0.91495875  0.07946018  0.84067876     0.03480
C459        C  0.92730211  0.12625948  0.68526217     0.38130
C460        C  0.93245321  0.02554141  0.88344460     0.38120
C461        C  0.89748630  0.08186035  0.89908723     0.36540
C462        C  0.97293788  0.07926337  0.67232425     0.36540
N463        N  0.88369708  0.08374265  0.94567191    -0.38280
N464        N  0.98451391  0.07915290  0.62361788    -0.38280
N465        N  0.92963385  0.00686062  0.92757667    -0.37720
N466        N  0.92295282  0.14353417  0.64351635    -0.37730
C467        C  0.61749678  0.09739813  0.86741541    -0.04390
C468        C  0.58079029  0.10339890  0.87823775    -0.01510
C469        C  0.54339971  0.07008863  0.90871553     0.03480
C470        C  0.54607389  0.03550025  0.93853450    -0.04390
C471        C  0.58105022  0.02782471  0.92254522    -0.01500
C472        C  0.61352777  0.05596284  0.88206661     0.03480
C473        C  0.58234177  0.14451245  0.86224234     0.38130
C474        C  0.58446241  0.99105610  0.94746047     0.38120
C475        C  0.64346151  0.04243803  0.85655659     0.36540
C476        C  0.50265328  0.07142386  0.90960896     0.36540
N477        N  0.66712893  0.03147637  0.83615608    -0.38280
N478        N  0.46992697  0.07224757  0.90938455    -0.38280
N479        N  0.58810964  0.96155746  0.96453325    -0.37720
N480        N  0.58343288  0.17738434  0.84972639    -0.37730
C481        C  0.62228697  0.53071624  0.36987998    -0.04390
C482        C  0.58464674  0.48847652  0.37283425    -0.01510
C483        C  0.54605250  0.48353913  0.40071550     0.03480
C484        C  0.54755560  0.51908231  0.43440620    -0.04390
C485        C  0.58293008  0.56204732  0.42327533    -0.01500
C486        C  0.61793176  0.56771918  0.38641000     0.03480
C487        C  0.58587446  0.44967972  0.35089033     0.38130
C488        C  0.58537542  0.60095274  0.45142355     0.38120
C489        C  0.64957946  0.61172413  0.36605681     0.36540
C490        C  0.50599572  0.44169519  0.39508222     0.36540
N491        N  0.67454007  0.64677726  0.34954227    -0.38280
N492        N  0.47530431  0.40747395  0.38745328    -0.38280
N493        N  0.58899817  0.63345335  0.47144563    -0.37720
N494        N  0.58637850  0.41835059  0.33378477    -0.37730
C495        C  0.47339556  0.09323924  0.36871132    -0.04390
C496        C  0.50985540  0.11273938  0.40770172    -0.01510
C497        C  0.51856382  0.08612413  0.44694756     0.03480
C498        C  0.49017254  0.03953597  0.44923577    -0.04390
C499        C  0.45600504  0.01982493  0.40607073    -0.01500
C500        C  0.44832838  0.04648646  0.36547305     0.03480
C501        C  0.53709964  0.16048444  0.41069307     0.38130
C502        C  0.42573885  0.97265373  0.40577784     0.38120
C503        C  0.41343240  0.02543779  0.32112405     0.36540
C504        C  0.55753750  0.10750456  0.48444513     0.36540
N505        N  0.38553450  0.00864468  0.28597259    -0.38280
N506        N  0.58953289  0.12622459  0.51226561    -0.38280
N507        N  0.40013352  0.93539905  0.40380298    -0.37720
N508        N  0.55907203  0.19850529  0.41355480    -0.37730
C509        C  0.45040874  0.48964356  0.43932176    -0.04390
C510        C  0.41594755  0.44540449  0.43590833    -0.01510
C511        C  0.38175415  0.43300618  0.39383324     0.03480
C512        C  0.37558558  0.46571377  0.36431279    -0.04390
C513        C  0.41158363  0.50935334  0.36369658    -0.01500
C514        C  0.45021055  0.52006203  0.39705338     0.03480
C515        C  0.41474767  0.41194766  0.47594841     0.38130
C516        C  0.40919257  0.54427530  0.33133408     0.38120
C517        C  0.48833835  0.56291034  0.38785403     0.36540
C518        C  0.35437223  0.38642070  0.37955044     0.36540
N519        N  0.51675637  0.59774010  0.37644382    -0.38280
N520        N  0.33297366  0.34922492  0.36810029    -0.38280
N521        N  0.40838865  0.57302012  0.30622072    -0.37720
N522        N  0.41264898  0.38404421  0.50641269    -0.37730
C523        C  0.49929596  0.95573570  0.43904736    -0.04390
C524        C  0.47212923  0.90894998  0.43459854    -0.01510
C525        C  0.47963875  0.88435740  0.38997813     0.03480
C526        C  0.51060354  0.90628284  0.34417217    -0.04390
C527        C  0.53093908  0.95288915  0.34159545    -0.01500
C528        C  0.52822021  0.97756942  0.39054661     0.03480
C529        C  0.43525726  0.88502226  0.47464727     0.38130
C530        C  0.55495739  0.97573908  0.28821700     0.38120
C531        C  0.55863805  0.02462779  0.39173848     0.36540
C532        C  0.45684165  0.83648360  0.39425553     0.36540
N533        N  0.58447439  0.06180394  0.39020769    -0.38280
N534        N  0.43836541  0.79837157  0.39886650    -0.38280
N535        N  0.57358525  0.99416864  0.24544994    -0.37720
N536        N  0.40456288  0.86378309  0.50365162    -0.37730
C537        C  0.09080004  0.03919611  0.25584409    -0.04390
C538        C  0.10458907  0.04790927  0.19501741    -0.01510
C539        C  0.14961596  0.06947883  0.18051703     0.03480
C540        C  0.18126072  0.08386242  0.22654016    -0.04390
C541        C  0.16790052  0.07771150  0.28709244    -0.01500
C542        C  0.12316006  0.05348667  0.30165736     0.03480
C543        C  0.07306933  0.03273688  0.14630558     0.38130
C544        C  0.20028410  0.09720589  0.33501697     0.38120
C545        C  0.11220801  0.04188734  0.36402473     0.36540
C546        C  0.16337704  0.07539749  0.11805995     0.36540
N547        N  0.10751484  0.03400739  0.41484985    -0.38280
N548        N  0.17431368  0.08000930  0.06827764    -0.38280
N549        N  0.22592462  0.11282765  0.37325279    -0.37720
N550        N  0.04963436  0.02096481  0.10529910    -0.37730
C551        C  0.04180820  0.08614037  0.27011533    -0.04390
C552        C  0.04449733  0.10856180  0.21598659    -0.01510
C553        C  0.06869462  0.15509701  0.21374323     0.03480
C554        C  0.08540937  0.18019681  0.26712534    -0.04390
C555        C  0.08071720  0.15780597  0.32187155    -0.01500
C556        C  0.06155646  0.11140795  0.32258720     0.03480
C557        C  0.02154128  0.08487875  0.16226174     0.38130
C558        C  0.09300746  0.18184346  0.37859897     0.38120
C559        C  0.05950383  0.09015327  0.37925425     0.36540
C560        C  0.07757966  0.17668110  0.15564947     0.36540
N561        N  0.05740654  0.07510500  0.42624848    -0.38280
N562        N  0.08473504  0.19352529  0.10909233    -0.38280
N563        N  0.10239686  0.20058079  0.42412733    -0.37720
N564        N  0.00378661  0.06873225  0.11763022    -0.37730
C565        C  0.95291772  0.89287073  0.30242170    -0.04390
C566        C  0.96116211  0.86383634  0.26726248    -0.01510
C567        C  0.92537361  0.82604515  0.24358855     0.03480
C568        C  0.88578710  0.80562927  0.27718448    -0.04390
C569        C  0.88142210  0.82977433  0.32609924    -0.01500
C570        C  0.91601907  0.87255884  0.34024378     0.03480
C571        C  0.99212110  0.85176460  0.29209858     0.38130
C572        C  0.84075885  0.81218578  0.35956514     0.38120
C573        C  0.91729655  0.89245120  0.39794585     0.36540
C574        C  0.93468758  0.80424807  0.19446715     0.36540
N575        N  0.91890534  0.90675970  0.44557166    -0.38280
N576        N  0.94338128  0.78776302  0.15535516    -0.38280
N577        N  0.80812233  0.79840100  0.38586787    -0.37720
N578        N  0.01447116  0.83912461  0.31223329    -0.37730
C579        C  0.90078723  0.93913291  0.27972643    -0.04390
C580        C  0.87341132  0.94374952  0.32289494    -0.01510
C581        C  0.82775082  0.92379249  0.31337606     0.03480
C582        C  0.80859918  0.89800443  0.26144107    -0.04390
C583        C  0.83520199  0.89113864  0.21994527    -0.01500
C584        C  0.88088355  0.91119948  0.22921943     0.03480
C585        C  0.89085987  0.96583448  0.37972538     0.38130
C586        C  0.81591648  0.86509843  0.16584928     0.38120
C587        C  0.90710357  0.90413470  0.18469559     0.36540
C588        C  0.80023358  0.92851457  0.35852389     0.36540
N589        N  0.92647070  0.89764198  0.14760869    -0.38280
N590        N  0.77838804  0.93234959  0.39454065    -0.38280
N591        N  0.80066365  0.84444263  0.12265071    -0.37720
N592        N  0.90191121  0.98104214  0.42720337    -0.37730
C593        C  0.11112196  0.91469943  0.26764627    -0.04390
C594        C  0.09097192  0.91923967  0.21537780    -0.01510
C595        C  0.06036010  0.93443671  0.21940332     0.03480
C596        C  0.05026388  0.94630256  0.27580512    -0.04390
C597        C  0.06892210  0.93970699  0.32845879    -0.01500
C598        C  0.10063143  0.92567709  0.32421743     0.03480
C599        C  0.10092155  0.90702484  0.15722659     0.38130
C600        C  0.05039676  0.94053392  0.38649268     0.38120
C601        C  0.12000718  0.91941090  0.37830013     0.36540
C602        C  0.03542765  0.93206417  0.16629251     0.36540
N603        N  0.13555453  0.91445707  0.42143810    -0.38280
N604        N  0.01605448  0.92828956  0.12248865    -0.38280
N605        N  0.03495119  0.94034449  0.43261579    -0.37720
N606        N  0.10876055  0.89719295  0.11092372    -0.37730
C607        C  0.40485854  0.89825872  0.15097005    -0.04390
C608        C  0.43501145  0.94281450  0.16301675    -0.01510
C609        C  0.45980216  0.97151099  0.11634784     0.03480
C610        C  0.46318970  0.95378761  0.06000219    -0.04390
C611        C  0.44207555  0.90671060  0.05495585    -0.01500
C612        C  0.41034796  0.87944697  0.09767636     0.03480
C613        C  0.44226038  0.95833164  0.22454666     0.38130
C614        C  0.45235487  0.88586808  0.00562746     0.38120
C615        C  0.38266440  0.83272984  0.08521608     0.36540
C616        C  0.47584115  0.01806508  0.12681603     0.36540
N617        N  0.36070865  0.79546464  0.07468059    -0.38280
N618        N  0.48620815  0.05426299  0.13957204    -0.38280
N619        N  0.46042147  0.86818308  0.96746707    -0.37720
N620        N  0.44994487  0.96998939  0.27396397    -0.37730
C621        C  0.94588380  0.03708979  0.27300205    -0.04390
C622        C  0.92016341  0.03309101  0.22152695    -0.01510
C623        C  0.89827868  0.05828070  0.21679034     0.03480
C624        C  0.90878430  0.09425660  0.25682332    -0.04390
C625        C  0.93875871  0.10123163  0.30382978    -0.01500
C626        C  0.95112350  0.06923225  0.31658240     0.03480
C627        C  0.91745414  0.00514637  0.17128238     0.38130
C628        C  0.96010007  0.14262586  0.33717519     0.38120
C629        C  0.96514278  0.06812184  0.37726002     0.36540
C630        C  0.86463338  0.04581188  0.17108768     0.36540
N631        N  0.97369834  0.06857845  0.42760468    -0.38280
N632        N  0.83766607  0.03484605  0.13451885    -0.38280
N633        N  0.97794935  0.17571023  0.36348238    -0.37720
N634        N  0.91518733  0.98464218  0.12887977    -0.37730
C635        C  0.55271480  0.04101222  0.05012224    -0.04390
C636        C  0.56643246  0.08660217  0.05879479    -0.01510
C637        C  0.60491076  0.11420574  0.09132210     0.03480
C638        C  0.63023598  0.09675250  0.11614967    -0.04390
C639        C  0.61437521  0.05064045  0.11311321    -0.01500
C640        C  0.57494931  0.02266927  0.08211234     0.03480
C641        C  0.53994367  0.10539451  0.03731229     0.38130
C642        C  0.63890329  0.03183891  0.14133882     0.38120
C643        C  0.55771028  0.97528676  0.08401325     0.36540
C644        C  0.61965323  0.16124210  0.09580526     0.36540
N645        N  0.54450829  0.93755476  0.08710623    -0.38280
N646        N  0.63117178  0.19866596  0.09923947    -0.38280
N647        N  0.65845039  0.01678583  0.16374304    -0.37720
N648        N  0.51940456  0.12183909  0.02333574    -0.37730
C649        C  0.95946200  0.51723704  0.04154728    -0.04390
C650        C  0.91312343  0.48913378  0.04495121    -0.01510
C651        C  0.88758901  0.49804134  0.08578426     0.03480
C652        C  0.90780793  0.53365241  0.12639289    -0.04390
C653        C  0.95401581  0.55829880  0.12882155    -0.01500
C654        C  0.97983604  0.55084435  0.08614950     0.03480
C655        C  0.89055330  0.44927963  0.00885210     0.38130
C656        C  0.97503715  0.59162403  0.17549626     0.38120
C657        C  0.02684994  0.57979718  0.08777373     0.36540
C658        C  0.83998638  0.47164564  0.08345448     0.36540
N659        N  0.06405518  0.60443498  0.09163096    -0.38280
N660        N  0.80210330  0.45061896  0.08143323    -0.38280
N661        N  0.99188377  0.61791585  0.21297856    -0.37720
N662        N  0.86970833  0.41626065  0.98338025    -0.37730
C663        C  0.04330906  0.50617241  0.04532403    -0.04390
C664        C  0.08990611  0.53282645  0.04579102    -0.01510
C665        C  0.11633596  0.52115135  0.08080795     0.03480
C666        C  0.09669972  0.48451779  0.11936296    -0.04390
C667        C  0.05070716  0.46356289  0.12795984    -0.01500
C668        C  0.02395178  0.47358064  0.09063952     0.03480
C669        C  0.11152210  0.57306542  0.01092386     0.38130
C670        C  0.03089160  0.43057606  0.17461629     0.38120
C671        C  0.97683732  0.44814097  0.09800543     0.36540
C672        C  0.16366099  0.54532966  0.07364163     0.36540
N673        N  0.93952328  0.42650095  0.10623584    -0.38280
N674        N  0.20137141  0.56479242  0.06751502    -0.38280
N675        N  0.01648691  0.40412459  0.21185801    -0.37720
N676        N  0.13055739  0.60626261  0.98570929    -0.37730
C677        C  0.08720257  0.46855584  0.86319318    -0.04390
C678        C  0.09327971  0.51199202  0.86114652    -0.01510
C679        C  0.06426718  0.52238859  0.89291367     0.03480
C680        C  0.03383347  0.49158198  0.93414007    -0.04390
C681        C  0.02526642  0.44727645  0.93083988    -0.01500
C682        C  0.04853987  0.43539496  0.89032000     0.03480
C683        C  0.13031584  0.54683363  0.82976683     0.38130
C684        C  0.99362576  0.41341483  0.97017380     0.38120
C685        C  0.03246834  0.38892251  0.87686057     0.36540
C686        C  0.06792647  0.56543396  0.88483770     0.36540
N687        N  0.01934242  0.35185638  0.86606956    -0.38280
N688        N  0.07244085  0.60027334  0.87607354    -0.38280
N689        N  0.96835649  0.38498469  0.99978115    -0.37720
N690        N  0.15973352  0.57525657  0.80519108    -0.37730
C691        C  0.96761328  0.52324587  0.92781527    -0.03910
C692        C  0.97445168  0.56645649  0.91715944    -0.01510
C693        C  0.95322377  0.57492419  0.86899178     0.03480
C694        C  0.92110725  0.53959658  0.83388324    -0.04390
C695        C  0.91349844  0.49640202  0.84563170    -0.01500
C696        C  0.93951367  0.48905112  0.88778736     0.03480
C697        C  0.00398497  0.60323343  0.95515807     0.38130
C698        C  0.87620902  0.45836228  0.81901717     0.38120
C699        C  0.93514891  0.44538725  0.88943649     0.36540
C700        C  0.96278693  0.62013066  0.85919890     0.36540
N701        N  0.92877413  0.40939100  0.88672248    -0.38280
N702        N  0.97123352  0.65645927  0.85174103    -0.38280
N703        N  0.84529742  0.42715072  0.80172190    -0.37720
N704        N  0.02759537  0.63393982  0.98329013    -0.37730
C705        C  0.49123671  0.45086664  0.04548360    -0.04390
C706        C  0.45852483  0.43869594  0.09050345    -0.01510
C707        C  0.45183325  0.40555167  0.13243770     0.03480
C708        C  0.47617439  0.38296966  0.12847448    -0.04390
C709        C  0.51228348  0.39884369  0.08933393    -0.01500
C710        C  0.52027949  0.43310167  0.04895311     0.03480
C711        C  0.42922248  0.45711652  0.09232233     0.38130
C712        C  0.53968884  0.37811895  0.08727625     0.38120
C713        C  0.55939066  0.45025683  0.01205325     0.36540
C714        C  0.41860540  0.39343123  0.17876067     0.36540
N715        N  0.59175421  0.46320544  0.98529327    -0.38280
N716        N  0.39217079  0.38382496  0.21569326    -0.38280
N717        N  0.56175041  0.36185143  0.08524518    -0.37720
N718        N  0.40470002  0.47043478  0.09557318    -0.37730
C719        C  0.48211476  0.44823186  0.93278535    -0.04390
C720        C  0.51451368  0.45488258  0.88925924    -0.01510
C721        C  0.50684508  0.42131721  0.84641670     0.03480
C722        C  0.46606355  0.38176528  0.84419966    -0.04390
C723        C  0.43242021  0.37696189  0.88399478    -0.01500
C724        C  0.44043228  0.40958660  0.92782509     0.03480
C725        C  0.55641103  0.49527849  0.88884985     0.38130
C726        C  0.38956127  0.33742342  0.88237871     0.38120
C727        C  0.40442370  0.40316088  0.96674908     0.36540
C728        C  0.54129467  0.42741287  0.80476902     0.36540
N729        N  0.37414999  0.39652666  0.99536622    -0.38280
N730        N  0.56898512  0.43230134  0.77190326    -0.38280
N731        N  0.35511611  0.30633830  0.88136046    -0.37720
N732        N  0.59038472  0.52692363  0.88706921    -0.37730
C733        C  0.50898222  0.60676748  0.13731685    -0.04390
C734        C  0.52984541  0.58084475  0.14341002    -0.01510
C735        C  0.52749167  0.55191142  0.09674746     0.03480
C736        C  0.49890121  0.54354993  0.04691182    -0.04390
C737        C  0.47164473  0.56347335  0.04767151    -0.01500
C738        C  0.47813725  0.59630761  0.09054541     0.03480
C739        C  0.55471182  0.58460463  0.19761673     0.38130
C740        C  0.43597518  0.55023102  0.00493760     0.38120
C741        C  0.45442535  0.62061254  0.08362514     0.36540
C742        C  0.55812507  0.53515622  0.09904932     0.36540
N743        N  0.43521436  0.63961526  0.07710003    -0.38280
N744        N  0.58415320  0.52386297  0.10345052    -0.38280
N745        N  0.40642274  0.54058733  0.97310489    -0.37720
N746        N  0.57434343  0.58737753  0.24085836    -0.37730
C747        C  0.53162198  0.61173594  0.84254574    -0.04390
C748        C  0.56142439  0.61983790  0.89015074    -0.01510
C749        C  0.55240227  0.58735747  0.93386284     0.03480
C750        C  0.51168197  0.54734211  0.93421444    -0.04390
C751        C  0.48183133  0.53916481  0.88598193    -0.01500
C752        C  0.49217981  0.57104489  0.84021381     0.03480
C753        C  0.60055020  0.66280484  0.89695891     0.38130
C754        C  0.43918192  0.49977767  0.88400846     0.38120
C755        C  0.46170975  0.56232916  0.79097976     0.36540
C756        C  0.58637187  0.59556988  0.97771439     0.36540
N757        N  0.43738984  0.55556287  0.75182420    -0.38280
N758        N  0.61498965  0.60375201  0.01070492    -0.38280
N759        N  0.40430210  0.46955769  0.88019633    -0.37720
N760        N  0.63167286  0.69696408  0.90289827    -0.37730
C761        C  0.94568165  0.46171072  0.43766273    -0.04390
C762        C  0.90082732  0.44324833  0.45470554    -0.01510
C763        C  0.86927279  0.40117884  0.43292518     0.03480
C764        C  0.88076666  0.38087959  0.38702900    -0.04390
C765        C  0.92106497  0.40562068  0.35752961    -0.01500
C766        C  0.95416006  0.44545156  0.38324533     0.03480
C767        C  0.88780239  0.46566544  0.49850440     0.38130
C768        C  0.92754921  0.38950824  0.30027744     0.38120
C769        C  0.99530299  0.46848874  0.35161596     0.36540
C770        C  0.82628153  0.37765837  0.46041862     0.36540
N771        N  0.02616935  0.48478203  0.32144477    -0.38280
N772        N  0.79205759  0.35869476  0.48263910    -0.38280
N773        N  0.93052561  0.37567900  0.25415285    -0.37720
N774        N  0.87643815  0.48290471  0.53324512    -0.37730
C775        C  0.90335229  0.36742197  0.59406167    -0.04390
C776        C  0.93285550  0.36686684  0.55107836    -0.01510
C777        C  0.96446451  0.40658199  0.52397028     0.03480
C778        C  0.96734327  0.44768555  0.53953371    -0.04390
C779        C  0.94216675  0.44814218  0.58930995    -0.01500
C780        C  0.90769206  0.40826825  0.61177521     0.03480
C781        C  0.92868795  0.32494698  0.53172333     0.38130
C782        C  0.95306430  0.48804828  0.62258481     0.38120
C783        C  0.87541319  0.40941383  0.65134604     0.36540
C784        C  0.99302683  0.40486542  0.47794396     0.36540
N785        N  0.84839983  0.41009692  0.68054813    -0.38280
N786        N  0.01544734  0.40282638  0.44120895    -0.38280
N787        N  0.96004234  0.51710666  0.65479478    -0.37720
N788        N  0.92509754  0.29144124  0.51611096    -0.37730
C789        C  0.03878606  0.54589795  0.54593069    -0.04390
C790        C  0.02810328  0.57768284  0.56865495    -0.01510
C791        C  0.05641252  0.61056011  0.60920147     0.03480
C792        C  0.09928387  0.61753500  0.61908760    -0.04390
C793        C  0.10835332  0.58346988  0.60242164    -0.01500
C794        C  0.07666388  0.54620741  0.56937671     0.03480
C795        C  0.98734368  0.57653152  0.55266244     0.38130
C796        C  0.15055915  0.58745121  0.61670555     0.38120
C797        C  0.08189464  0.50757752  0.56263130     0.36540
C798        C  0.04138019  0.63756296  0.64059096     0.36540
N799        N  0.08592890  0.47643451  0.55948518    -0.38280
N800        N  0.02920487  0.65880015  0.66579202    -0.38280
N801        N  0.18433977  0.59062573  0.62789607    -0.37720
N802        N  0.95477752  0.57668486  0.54388912    -0.37730
C803        C  0.09169316  0.62075355  0.35632469    -0.04390
C804        C  0.05052356  0.61452339  0.37728623    -0.01510
C805        C  0.02195265  0.57633994  0.41005914     0.03480
C806        C  0.03705920  0.54846895  0.43320524    -0.04390
C807        C  0.07747536  0.55374141  0.41130607    -0.01500
C808        C  0.10318910  0.58797155  0.37056394     0.03480
C809        C  0.03809120  0.64845986  0.37030209     0.38130
C810        C  0.09051385  0.52094012  0.42456401     0.38120
C811        C  0.14048036  0.58798444  0.34171761     0.36540
C812        C  0.97618699  0.56437564  0.41555736     0.36540
N813        N  0.16989652  0.58742389  0.31858839    -0.38280
N814        N  0.93951362  0.55495369  0.41718499    -0.38280
N815        N  0.10163668  0.49486348  0.43155032    -0.37720
N816        N  0.02780058  0.67538422  0.36597919    -0.37730
loop_ 
_geom_bond_atom_site_label_1 
_geom_bond_atom_site_label_2 
_geom_bond_distance 
_geom_bond_site_symmetry_2 
_ccdc_geom_bond_type 
C1            C2   1.379   1_655  D
C1          C761   1.525       .  S
C1          C778   1.518       .  S
C2          C789   1.511       .  S
C2          C806   1.510       .  S
C3            C4   1.384       .  D
C3          C736   1.523   1_556  S
C3          C750   1.516       .  S
C4          C705   1.514   1_556  S
C4          C719   1.518       .  S
C5            C6   1.381   1_655  D
C5          C649   1.518   1_556  S
C5          C691   1.519       .  S
C6          C663   1.521   1_556  S
C6          C680   1.507       .  S
N7            N8   1.322       .  A
N7           C11   1.349       .  A
N7          Cu15   2.073       .  S
N8            C9   1.343       .  A
N8          Cu14   2.082       .  S
C9           C10   1.384       .  A
C9           H12   1.082       .  S
C10          C11   1.385       .  A
C10         C764   1.486       .  S
C11          H13   1.082       .  S
Cu14         N17   2.081       .  S
Cu15         N25   2.075       .  S
Cu16         N18   2.065       .  S
Cu16         N24   2.069       .  S
N17          N18   1.317       .  A
N17          C21   1.342       .  A
N18          C19   1.345       .  A
C19          C20   1.393       .  A
C19          H22   1.080       .  S
C20          C21   1.396       .  A
C20         C624   1.511       .  S
C21          H23   1.078       .  S
N24          N25   1.323       .  A
N24          C28   1.343       .  A
N25          C26   1.345       .  A
C26          C27   1.385       .  A
C26          H29   1.082       .  S
C27          C28   1.382       .  A
C27         C638   1.487       .  S
C28          H30   1.081       .  S
N31          N32   1.320       .  A
N31          C35   1.350       .  A
N31         Cu39   2.107       .  S
N32          C33   1.341       .  A
N32         Cu38   2.060       .  S
C33          C34   1.387       .  A
C33          H36   1.079       .  S
C34          C35   1.400       .  A
C34         C803   1.511       .  S
C35          H37   1.081       .  S
Cu38         N41   2.065       .  S
Cu39         N49   2.108       .  S
Cu40         N42   2.074       .  S
Cu40         N48   2.076       .  S
N41          N42   1.321       .  A
N41          C45   1.341       .  A
N42          C43   1.349       .  A
C43          C44   1.384       .  A
C43          H46   1.081       .  S
C44          C45   1.381       .  A
C44         C593   1.481       .  S
C45          H47   1.083       .  S
N48          N49   1.323       .  A
N48          C52   1.341       .  A
N49          C50   1.355       .  A
C50          C51   1.395       .  A
C50          H53   1.081       .  S
C51          C52   1.384       .  A
C51         C607   1.500       .  S
C52          H54   1.082       .  S
C55          C56   1.436   1_545  A
C55          C60   1.422   1_655  A
C55         C621   1.523       .  S
C56          C57   1.446       .  A
C56         C579   1.508       .  S
C57          C58   1.431   1_655  A
C57         C565   1.531       .  S
C58          C59   1.420   1_565  A
C58         C596   1.499       .  S
C59          C60   1.416       .  A
C59         C537   1.506       .  S
C60         C551   1.505       .  S
N61          N62   1.321       .  A
N61          C65   1.351       .  A
N61         Cu69   2.100       .  S
N62          C63   1.336       .  A
N62         Cu68   2.047       .  S
C63          C64   1.381       .  A
C63          H66   1.082       .  S
C64          C65   1.397       .  A
C64         C733   1.498       .  S
C65          H67   1.081       .  S
Cu68         N71   2.046       .  S
Cu69         N79   2.101       .  S
Cu70         N72   2.059       .  S
Cu70         N78   2.060       .  S
N71          N72   1.317       .  A
N71          C75   1.341       .  A
N72          C73   1.343       .  A
C73          C74   1.385       .  A
C73          H76   1.082       .  S
C74          C75   1.382       .  A
C74         C582   1.482       .  S
C75          H77   1.082       .  S
N78          N79   1.323       .  A
N78          C82   1.339       .  A
N79          C80   1.349       .  A
C80          C81   1.395       .  A
C80          H83   1.081       .  S
C81          C82   1.382       .  A
C81         C526   1.499       .  S
C82          H84   1.082       .  S
N85          N86   1.318       .  A
N85          C89   1.353       .  A
N85         Cu93   2.107       .  S
N86          C87   1.335       .  A
N86         Cu92   2.048       .  S
C87          C88   1.386       .  A
C87          H90   1.079       .  S
C88          C89   1.403       .  A
C88         C512   1.512       .  S
C89          H91   1.078       .  S
Cu92         N95   2.053       .  S
Cu93        N103   2.109       .  S
Cu94         N96   2.051       .  S
Cu94        N102   2.052       .  S
N95          N96   1.316       .  A
N95          C99   1.341       .  A
N96          C97   1.341       .  A
C97          C98   1.388       .  A
C97         H100   1.081       .  S
C98          C99   1.387       .  A
C98         C554   1.492       .  S
C99         H101   1.081       .  S
N102        N103   1.323       .  A
N102        C106   1.337       .  A
N103        C104   1.353       .  A
C104        C105   1.396       .  A
C104        H107   1.081       .  S
C105        C106   1.380       .  A
C105        C666   1.499       .  S
C106        H108   1.082       .  S
N109        N110   1.324       .  A
N109        C113   1.350       .  A
N109       Cu117   2.099       .  S
N110        C111   1.336       .  A
N110       Cu116   2.050       .  S
C111        C112   1.375       .  A
C111        H114   1.082       .  S
C112        C113   1.391       .  A
C112        C708   1.486       .  S
C113        H115   1.082       .  S
Cu116       N119   2.048       .  S
Cu117       N127   2.096       .  S
Cu118       N120   2.034       .  S
Cu118       N126   2.032       .  S
N119        N120   1.315       .  A
N119        C123   1.344       .  A
N120        C121   1.336       .  A
C121        C122   1.380       .  A
C121        H124   1.082       .  S
C122        C123   1.384       .  A
C122        C540   1.476       .  S
C123        H125   1.081       .  S
N126        N127   1.319       .  A
N126        C130   1.332       .  A
N127        C128   1.352       .  A
C128        C129   1.397       .  A
C128        H131   1.082       .  S
C129        C130   1.377       .  A
C129        C495   1.494       .  S
C130        H132   1.081       .  S
N133        N134   1.320       .  A
N133        C137   1.350       .  A
N133       Cu141   2.074       .  S
N134        C135   1.336       .  A
N134       Cu140   2.061       .  S
C135        C136   1.385       .  A
C135        H138   1.081       .  S
C136        C137   1.391       .  A
C136        C481   1.496       .  S
C137        H139   1.080       .  S
Cu140       N143   2.067       .  S
Cu141       N151   2.074       .  S
Cu142       N144   2.059       .  S
Cu142       N150   2.064       .  S
N143        N144   1.317       .  A
N143        C147   1.341       .  A
N144        C145   1.342       .  A
C145        C146   1.390       .  A
C145        H148   1.079       .  S
C146        C147   1.391       .  A
C146        C568   1.495       .  S
C147        H149   1.080       .  S
N150        N151   1.320       .  A
N150        C154   1.343       .  A
N151        C152   1.346       .  A
C152        C153   1.388       .  A
C152        H155   1.082       .  S
C153        C154   1.382       .  A
C153        C652   1.486       .  S
C154        H156   1.081       .  S
N157        N158   1.323       .  A
N157        C161   1.361       .  A
N157       Cu165   2.136       .  S
N158        C159   1.334       .  A
N158       Cu164   2.058       .  S
C159        C160   1.380       .  A
C159        H162   1.081       .  S
C160        C161   1.402       .  A
C160        C467   1.507       .  S
C161        H163   1.082       .  S
Cu164       N167   2.060       .  S
Cu165       N175   2.137       .  S
Cu166       N168   2.025       .  S
Cu166       N174   2.028       .  S
N167        N168   1.313       .  A
N167        C171   1.344       .  A
N168        C169   1.339       .  A
C169        C170   1.382       .  A
C169        H172   1.082       .  S
C170        C171   1.390       .  A
C170        C453   1.487       .  S
C171        H173   1.082       .  S
N174        N175   1.324       .  A
N174        C178   1.334       .  A
N175        C176   1.357       .  A
C176        C177   1.400       .  A
C176        H179   1.082       .  S
C177        C178   1.368       .  A
C177        C775   1.489       .  S
C178        H180   1.082       .  S
N181        N182   1.325       .  A
N181        C185   1.355       .  A
N181       Cu189   2.134       .  S
N182        C183   1.336       .  A
N182       Cu188   2.028       .  S
C183        C184   1.367       .  A
C183        H186   1.081       .  S
C184        C185   1.396       .  A
C184        C442   1.486       .  S
C185        H187   1.083       .  S
Cu188       N191   2.026       .  S
Cu189       N199   2.132       .  S
Cu190       N192   2.052       .  S
Cu190       N198   2.051       .  S
N191        N192   1.313       .  A
N191        C195   1.338       .  A
N192        C193   1.343       .  A
C193        C194   1.387       .  A
C193        H196   1.082       .  S
C194        C195   1.381       .  A
C194        C425   1.481       .  S
C195        H197   1.082       .  S
N198        N199   1.323       .  A
N198        C202   1.333       .  A
N199        C200   1.361       .  A
C200        C201   1.401       .  A
C200        H203   1.082       .  S
C201        C202   1.377       .  A
C201        C792   1.501       .  S
C202        H204   1.082       .  S
C205        C206   1.433   1_545  A
C205        C210   1.436   1_655  A
C205        C456   1.514       .  S
C206        C207   1.434       .  A
C206        C411   1.523       .  S
C207        C208   1.434   1_655  A
C207        C397   1.517       .  S
C208        C209   1.433   1_565  A
C208        C428   1.513       .  S
C209        C210   1.431       .  A
C209        C369   1.527       .  S
C210        C383   1.516       .  S
N211        N212   1.322       .  A
N211        C215   1.352       .  A
N211       Cu219   2.105       .  S
N212        C213   1.342       .  A
N212       Cu218   2.072       .  S
C213        C214   1.385       .  A
C213        H216   1.082       .  S
C214        C215   1.393       .  A
C214        C722   1.501       .  S
C215        H217   1.083       .  S
Cu218       N221   2.074       .  S
Cu219       N229   2.105       .  S
Cu220       N222   2.074       .  S
Cu220       N228   2.069       .  S
N221        N222   1.322       .  A
N221        C225   1.346       .  A
N222        C223   1.346       .  A
C223        C224   1.383       .  A
C223        H226   1.082       .  S
C224        C225   1.382       .  A
C224        C372   1.483       .  S
C225        H227   1.081       .  S
N228        N229   1.322       .  A
N228        C232   1.341       .  A
N229        C230   1.353       .  A
C230        C231   1.393       .  A
C230        H233   1.083       .  S
C231        C232   1.383       .  A
C231        C355   1.497       .  S
C232        H234   1.082       .  S
N235        N236   1.321       .  A
N235        C239   1.350       .  A
N235       Cu243   2.092       .  S
N236        C237   1.336       .  A
N236       Cu242   2.055       .  S
C237        C238   1.382       .  A
C237        H240   1.081       .  S
C238        C239   1.394       .  A
C238        C344   1.497       .  S
C239        H241   1.081       .  S
Cu242       N245   2.053       .  S
Cu243       N253   2.091       .  S
Cu244       N246   2.057       .  S
Cu244       N252   2.054       .  S
N245        N246   1.317       .  A
N245        C249   1.340       .  A
N246        C247   1.345       .  A
C247        C248   1.386       .  A
C247        H250   1.082       .  S
C248        C249   1.386       .  A
C248        C386   1.489       .  S
C249        H251   1.081       .  S
N252        N253   1.320       .  A
N252        C256   1.333       .  A
N253        C254   1.352       .  A
C254        C255   1.396       .  A
C254        H257   1.079       .  S
C255        C256   1.384       .  A
C255        C677   1.500       .  S
C256        H258   1.080       .  S
N259        N260   1.322       .  A
N259        C263   1.349       .  A
N259       Cu267   2.092       .  S
N260        C261   1.340       .  A
N260       Cu266   2.059       .  S
C261        C262   1.382       .  A
C261        H264   1.082       .  S
C262        C263   1.390       .  A
C262        C747   1.492       .  S
C263        H265   1.083       .  S
Cu266       N269   2.064       .  S
Cu267       N277   2.092       .  S
Cu268       N270   2.069       .  S
Cu268       N276   2.067       .  S
N269        N270   1.321       .  A
N269        C273   1.344       .  A
N270        C271   1.345       .  A
C271        C272   1.383       .  A
C271        H274   1.082       .  S
C272        C273   1.380       .  A
C272        C414   1.479       .  S
C273        H275   1.082       .  S
N276        N277   1.322       .  A
N276        C280   1.341       .  A
N277        C278   1.350       .  A
C278        C279   1.391       .  A
C278        H281   1.081       .  S
C279        C280   1.383       .  A
C279        C327   1.495       .  S
C280        H282   1.082       .  S
N283        N284   1.316       .  A
N283        C287   1.346       .  A
N283       Cu291   2.093       .  S
N284        C285   1.341       .  A
N284       Cu290   2.056       .  S
C285        C286   1.392       .  A
C285        H288   1.077       .  S
C286        C287   1.402       .  A
C286        C313   1.518       .  S
C287        H289   1.080       .  S
Cu290       N293   2.066       .  S
Cu291       N301   2.094       .  S
Cu292       N294   2.069       .  S
Cu292       N300   2.063       .  S
N293        N294   1.324       .  A
N293        C297   1.342       .  A
N294        C295   1.343       .  A
C295        C296   1.379       .  A
C295        H298   1.082       .  S
C296        C297   1.377       .  A
C296        C400   1.472       .  S
C297        H299   1.082       .  S
N300        N301   1.319       .  A
N300        C304   1.342       .  A
N301        C302   1.348       .  A
C302        C303   1.395       .  A
C302        H305   1.081       .  S
C303        C304   1.388       .  A
C303        C694   1.507       .  S
C304        H306   1.082       .  S
C307        C308   1.386   1_565  D
C307        C330   1.513       .  S
C307        C523   1.523       .  S
C308        C358   1.520       .  S
C308        C498   1.515       .  S
C309        C310   1.385   1_546  D
C309        C470   1.514       .  S
C309        C635   1.509   1_556  S
C310        C439   1.518   1_554  S
C310        C610   1.529       .  S
C311        C312   1.380       .  D
C311        C341   1.523       .  S
C311        C509   1.515       .  S
C312        C316   1.516       .  S
C312        C484   1.509       .  S
C313        C314   1.427       .  A
C313        C318   1.417       .  A
C314        C315   1.417       .  A
C314        C319   1.449       .  S
C315        C316   1.412       .  A
C315        C322   1.449       .  S
C316        C317   1.421       .  A
C317        C318   1.413       .  A
C317        C320   1.451       .  S
C318        C321   1.452       .  S
C319        N326   1.158       .  T
C320        N325   1.157       .  T
C321        N323   1.158       .  T
C322        N324   1.157       .  T
C327        C328   1.410       .  A
C327        C332   1.412       .  A
C328        C329   1.416       .  A
C328        C333   1.448       .  S
C329        C330   1.417       .  A
C329        C336   1.448       .  S
C330        C331   1.421       .  A
C331        C332   1.410       .  A
C331        C334   1.451       .  S
C332        C335   1.453       .  S
C333        N340   1.158       .  T
C334        N339   1.157   1_565  T
C335        N337   1.157       .  T
C336        N338   1.157       .  T
C341        C342   1.424       .  A
C341        C346   1.425       .  A
C342        C343   1.412       .  A
C342        C347   1.444       .  S
C343        C344   1.412       .  A
C343        C350   1.455       .  S
C344        C345   1.409       .  A
C345        C346   1.412       .  A
C345        C348   1.451       .  S
C346        C349   1.448       .  S
C347        N354   1.157       .  T
C348        N353   1.158       .  T
C349        N351   1.157       .  T
C350        N352   1.158       .  T
C355        C356   1.410       .  A
C355        C360   1.410       .  A
C356        C357   1.420       .  A
C356        C361   1.446       .  S
C357        C358   1.422       .  A
C357        C364   1.447       .  S
C358        C359   1.422       .  A
C359        C360   1.407       .  A
C359        C362   1.450       .  S
C360        C363   1.455       .  S
C361        N368   1.155       .  T
C362        N367   1.157   1_545  T
C363        N365   1.157       .  T
C364        N366   1.157       .  T
C369        C370   1.426       .  A
C369        C374   1.426       .  A
C370        C371   1.413       .  A
C370        C375   1.443       .  S
C371        C372   1.403       .  A
C371        C378   1.454       .  S
C372        C373   1.403       .  A
C373        C374   1.415       .  A
C373        C376   1.453       .  S
C374        C377   1.445       .  S
C375        N382   1.157       .  T
C376        N381   1.157       .  T
C377        N379   1.157       .  T
C378        N380   1.157       .  T
C383        C384   1.422       .  A
C383        C388   1.421       .  A
C384        C385   1.414       .  A
C384        C389   1.446       .  S
C385        C386   1.408       .  A
C385        C392   1.452       .  S
C386        C387   1.409       .  A
C387        C388   1.409       .  A
C387        C390   1.455       .  S
C388        C391   1.444       .  S
C389        N396   1.157       .  T
C390        N395   1.158       .  T
C391        N393   1.157       .  T
C392        N394   1.157       .  T
C397        C398   1.424       .  A
C397        C402   1.424       .  A
C398        C399   1.409       .  A
C398        C403   1.443       .  S
C399        C400   1.401       .  A
C399        C406   1.455       .  S
C400        C401   1.401       .  A
C401        C402   1.411       .  A
C401        C404   1.453       .  S
C402        C405   1.444       .  S
C403        N410   1.157       .  T
C404        N409   1.157       .  T
C405        N407   1.157       .  T
C406        N408   1.157       .  T
C411        C412   1.426       .  A
C411        C416   1.424       .  A
C412        C413   1.412       .  A
C412        C417   1.442       .  S
C413        C414   1.402       .  A
C413        C420   1.455       .  S
C414        C415   1.403       .  A
C415        C416   1.413       .  A
C415        C418   1.453       .  S
C416        C419   1.444       .  S
C417        N424   1.157   1_565  T
C418        N423   1.157       .  T
C419        N421   1.157       .  T
C420        N422   1.157       .  T
C425        C426   1.405       .  A
C425        C430   1.409       .  A
C426        C427   1.410       .  A
C426        C431   1.454       .  S
C427        C428   1.422       .  A
C427        C434   1.444       .  S
C428        C429   1.420       .  A
C429        C430   1.408       .  A
C429        C432   1.446       .  S
C430        C433   1.454       .  S
C431        N438   1.157       .  T
C432        N437   1.157       .  T
C433        N435   1.157       .  T
C434        N436   1.157       .  T
C439        C440   1.424       .  A
C439        C444   1.424       .  A
C440        C441   1.412       .  A
C440        C445   1.444       .  S
C441        C442   1.402       .  A
C441        C448   1.444       .  S
C442        C443   1.406       .  A
C443        C444   1.411       .  A
C443        C446   1.452       .  S
C444        C447   1.450   1_556  S
C445        N452   1.157       .  T
C446        N451   1.157       .  T
C447        N449   1.157   1_565  T
C448        N450   1.153       .  T
C453        C454   1.411       .  A
C453        C458   1.406       .  A
C454        C455   1.410       .  A
C454        C459   1.454       .  S
C455        C456   1.419       .  A
C455        C462   1.446       .  S
C456        C457   1.422       .  A
C457        C458   1.411       .  A
C457        C460   1.443       .  S
C458        C461   1.454       .  S
C459        N466   1.158       .  T
C460        N465   1.157       .  T
C461        N463   1.157       .  T
C462        N464   1.157       .  T
C467        C468   1.416       .  A
C467        C472   1.414       .  A
C468        C469   1.425       .  A
C468        C473   1.447       .  S
C469        C470   1.416       .  A
C469        C476   1.447       .  S
C470        C471   1.417       .  A
C471        C472   1.405       .  A
C471        C474   1.451   1_545  S
C472        C475   1.453       .  S
C473        N480   1.157       .  T
C474        N479   1.157       .  T
C475        N477   1.157       .  T
C476        N478   1.158       .  T
C481        C482   1.412       .  A
C481        C486   1.411       .  A
C482        C483   1.416       .  A
C482        C487   1.449       .  S
C483        C484   1.418       .  A
C483        C490   1.445       .  S
C484        C485   1.417       .  A
C485        C486   1.404       .  A
C485        C488   1.448       .  S
C486        C489   1.453       .  S
C487        N494   1.157       .  T
C488        N493   1.157       .  T
C489        N491   1.157       .  T
C490        N492   1.157       .  T
C495        C496   1.408       .  A
C495        C500   1.418       .  A
C496        C497   1.411       .  A
C496        C501   1.452       .  S
C497        C498   1.424       .  A
C497        C504   1.451       .  S
C498        C499   1.417       .  A
C499        C500   1.412       .  A
C499        C502   1.449   1_545  S
C500        C503   1.454       .  S
C501        N508   1.158       .  T
C502        N507   1.157       .  T
C503        N505   1.158       .  T
C504        N506   1.157       .  T
C509        C510   1.414       .  A
C509        C514   1.420       .  A
C510        C511   1.408       .  A
C510        C515   1.451       .  S
C511        C512   1.419       .  A
C511        C518   1.452       .  S
C512        C513   1.417       .  A
C513        C514   1.420       .  A
C513        C516   1.449       .  S
C514        C517   1.445       .  S
C515        N522   1.157       .  T
C516        N521   1.158       .  T
C517        N519   1.157       .  T
C518        N520   1.158       .  T
C523        C524   1.426       .  A
C523        C528   1.420       .  A
C524        C525   1.411       .  A
C524        C529   1.450       .  S
C525        C526   1.410       .  A
C525        C532   1.451       .  S
C526        C527   1.413       .  A
C527        C528   1.413       .  A
C527        C530   1.449       .  S
C528        C531   1.447   1_565  S
C529        N536   1.157       .  T
C530        N535   1.156       .  T
C531        N533   1.157       .  T
C532        N534   1.158       .  T
C537        C538   1.420       .  A
C537        C542   1.417       .  A
C538        C539   1.410       .  A
C538        C543   1.446       .  S
C539        C540   1.405       .  A
C539        C546   1.452       .  S
C540        C541   1.408       .  A
C541        C542   1.404       .  A
C541        C544   1.455       .  S
C542        C545   1.445       .  S
C543        N550   1.157       .  T
C544        N549   1.157       .  T
C545        N547   1.157       .  T
C546        N548   1.157       .  T
C551        C552   1.415       .  A
C551        C556   1.415       .  A
C552        C553   1.409       .  A
C552        C557   1.446       .  S
C553        C554   1.414       .  A
C553        C560   1.452       .  S
C554        C555   1.414       .  A
C555        C556   1.408       .  A
C555        C558   1.453       .  S
C556        C559   1.448       .  S
C557        N564   1.157       .  T
C558        N563   1.157       .  T
C559        N561   1.157       .  T
C560        N562   1.157       .  T
C565        C566   1.408       .  A
C565        C570   1.408       .  A
C566        C567   1.395       .  A
C566        C571   1.448       .  S
C567        C568   1.421       .  A
C567        C574   1.450       .  S
C568        C569   1.422       .  A
C569        C570   1.414       .  A
C569        C572   1.449       .  S
C570        C573   1.444       .  S
C571        N578   1.158   1_655  T
C572        N577   1.157       .  T
C573        N575   1.157       .  T
C574        N576   1.158       .  T
C579        C580   1.418       .  A
C579        C584   1.419       .  A
C580        C581   1.409       .  A
C580        C585   1.445       .  S
C581        C582   1.409       .  A
C581        C588   1.453       .  S
C582        C583   1.409       .  A
C583        C584   1.409       .  A
C583        C586   1.453       .  S
C584        C587   1.448       .  S
C585        N592   1.156       .  T
C586        N591   1.157       .  T
C587        N589   1.156       .  T
C588        N590   1.157       .  T
C593        C594   1.408       .  A
C593        C598   1.412       .  A
C594        C595   1.407       .  A
C594        C599   1.453       .  S
C595        C596   1.416       .  A
C595        C602   1.446       .  S
C596        C597   1.414       .  A
C597        C598   1.414       .  A
C597        C600   1.450       .  S
C598        C601   1.449       .  S
C599        N606   1.157       .  T
C600        N605   1.157       .  T
C601        N603   1.157       .  T
C602        N604   1.156       .  T
C607        C608   1.404       .  A
C607        C612   1.408       .  A
C608        C609   1.409       .  A
C608        C613   1.444       .  S
C609        C610   1.423       .  A
C609        C616   1.444   1_565  S
C610        C611   1.429       .  A
C611        C612   1.417       .  A
C611        C614   1.449       .  S
C612        C615   1.448       .  S
C613        N620   1.155       .  T
C614        N619   1.157   1_554  T
C615        N617   1.157       .  T
C616        N618   1.157       .  T
C621        C622   1.419       .  A
C621        C626   1.416       .  A
C622        C623   1.419       .  A
C622        C627   1.448       .  S
C623        C624   1.423       .  A
C623        C630   1.449       .  S
C624        C625   1.414       .  A
C625        C626   1.404       .  A
C625        C628   1.452       .  S
C626        C629   1.443       .  S
C627        N634   1.157   1_545  T
C628        N633   1.158       .  T
C629        N631   1.157       .  T
C630        N632   1.158       .  T
C635        C636   1.422       .  A
C635        C640   1.416       .  A
C636        C637   1.407       .  A
C636        C641   1.451       .  S
C637        C638   1.408       .  A
C637        C644   1.453       .  S
C638        C639   1.414       .  A
C639        C640   1.414       .  A
C639        C642   1.451       .  S
C640        C643   1.448   1_545  S
C641        N648   1.157       .  T
C642        N647   1.157       .  T
C643        N645   1.157       .  T
C644        N646   1.157       .  T
C649        C650   1.425       .  A
C649        C654   1.423       .  A
C650        C651   1.408       .  A
C650        C655   1.448       .  S
C651        C652   1.405       .  A
C651        C658   1.454       .  S
C652        C653   1.410       .  A
C653        C654   1.416       .  A
C653        C656   1.452       .  S
C654        C657   1.446   1_655  S
C655        N662   1.157   1_554  T
C656        N661   1.157       .  T
C657        N659   1.157       .  T
C658        N660   1.157       .  T
C663        C664   1.425       .  A
C663        C668   1.419       .  A
C664        C665   1.412       .  A
C664        C669   1.449       .  S
C665        C666   1.407       .  A
C665        C672   1.451       .  S
C666        C667   1.416       .  A
C667        C668   1.416       .  A
C667        C670   1.450       .  S
C668        C671   1.447   1_455  S
C669        N676   1.157   1_554  T
C670        N675   1.156       .  T
C671        N673   1.157       .  T
C672        N674   1.157       .  T
C677        C678   1.416       .  A
C677        C682   1.413       .  A
C678        C679   1.418       .  A
C678        C683   1.449       .  S
C679        C680   1.418       .  A
C679        C686   1.447       .  S
C680        C681   1.416       .  A
C681        C682   1.402       .  A
C681        C684   1.451   1_455  S
C682        C685   1.453       .  S
C683        N690   1.158       .  T
C684        N689   1.157       .  T
C685        N687   1.157       .  T
C686        N688   1.157       .  T
C691        C692   1.419       .  A
C691        C696   1.418       .  A
C692        C693   1.415       .  A
C692        C697   1.451   1_655  S
C693        C694   1.419       .  A
C693        C700   1.452       .  S
C694        C695   1.413       .  A
C695        C696   1.414       .  A
C695        C698   1.448       .  S
C696        C699   1.446       .  S
C697        N704   1.157       .  T
C698        N703   1.156       .  T
C699        N701   1.157       .  T
C700        N702   1.158       .  T
C705        C706   1.421       .  A
C705        C710   1.424       .  A
C706        C707   1.412       .  A
C706        C711   1.448       .  S
C707        C708   1.413       .  A
C707        C714   1.453       .  S
C708        C709   1.406       .  A
C709        C710   1.408       .  A
C709        C712   1.452       .  S
C710        C713   1.450       .  S
C711        N718   1.157       .  T
C712        N717   1.157       .  T
C713        N715   1.157   1_554  T
C714        N716   1.157       .  T
C719        C720   1.420       .  A
C719        C724   1.420       .  A
C720        C721   1.420       .  A
C720        C725   1.448       .  S
C721        C722   1.414       .  A
C721        C728   1.450       .  S
C722        C723   1.415       .  A
C723        C724   1.410       .  A
C723        C726   1.453       .  S
C724        C727   1.452       .  S
C725        N732   1.157       .  T
C726        N731   1.158       .  T
C727        N729   1.157       .  T
C728        N730   1.157       .  T
C733        C734   1.415       .  A
C733        C738   1.410       .  A
C734        C735   1.414       .  A
C734        C739   1.454       .  S
C735        C736   1.423       .  A
C735        C742   1.447       .  S
C736        C737   1.424       .  A
C737        C738   1.412       .  A
C737        C740   1.450       .  S
C738        C741   1.451       .  S
C739        N746   1.158       .  T
C740        N745   1.157   1_554  T
C741        N743   1.158       .  T
C742        N744   1.157       .  T
C747        C748   1.413       .  A
C747        C752   1.410       .  A
C748        C749   1.406       .  A
C748        C753   1.454       .  S
C749        C750   1.420       .  A
C749        C756   1.452       .  S
C750        C751   1.424       .  A
C751        C752   1.418       .  A
C751        C754   1.447       .  S
C752        C755   1.451       .  S
C753        N760   1.158       .  T
C754        N759   1.157       .  T
C755        N757   1.157       .  T
C756        N758   1.157   1_556  T
C761        C762   1.424       .  A
C761        C766   1.424       .  A
C762        C763   1.413       .  A
C762        C767   1.448       .  S
C763        C764   1.403       .  A
C763        C770   1.449       .  S
C764        C765   1.404       .  A
C765        C766   1.414       .  A
C765        C768   1.450       .  S
C766        C769   1.442       .  S
C767        N774   1.157       .  T
C768        N773   1.156       .  T
C769        N771   1.157   1_655  T
C770        N772   1.157       .  T
C775        C776   1.412       .  A
C775        C780   1.403       .  A
C776        C777   1.414       .  A
C776        C781   1.451       .  S
C777        C778   1.420       .  A
C777        C784   1.450       .  S
C778        C779   1.418       .  A
C779        C780   1.410       .  A
C779        C782   1.443       .  S
C780        C783   1.446       .  S
C781        N788   1.157       .  T
C782        N787   1.158       .  T
C783        N785   1.155       .  T
C784        N786   1.157   1_655  T
C789        C790   1.416       .  A
C789        C794   1.418       .  A
C790        C791   1.406       .  A
C790        C795   1.449   1_455  S
C791        C792   1.412       .  A
C791        C798   1.454       .  S
C792        C793   1.412       .  A
C793        C794   1.423       .  A
C793        C796   1.447       .  S
C794        C797   1.445       .  S
C795        N802   1.157       .  T
C796        N801   1.157       .  T
C797        N799   1.157       .  T
C798        N800   1.157       .  T
C803        C804   1.424       .  A
C803        C808   1.416       .  A
C804        C805   1.413       .  A
C804        C809   1.449       .  S
C805        C806   1.408       .  A
C805        C812   1.447   1_455  S
C806        C807   1.418       .  A
C807        C808   1.416       .  A
C807        C810   1.449       .  S
C808        C811   1.452       .  S
C809        N816   1.158       .  T
C810        N815   1.157       .  T
C811        N813   1.158       .  T
C812        N814   1.157       .  T
