geometry optimzed in LAMMPS
_audit_creation_date              2020-11-30 
_audit_creation_method            'lammps2cif' 
_symmetry_space_group_name_H-M    'P1' 
_symmetry_Int_Tables_number       1 
_symmetry_cell_setting            triclinic 
loop_ 
_symmetry_equiv_pos_as_xyz 
  x,y,z 
_cell_length_a                    28.79768635 
_cell_length_b                    29.096266418869636 
_cell_length_c                    37.802029305932784 
_cell_angle_alpha                 89.9507619549224 
_cell_angle_beta                  89.64685634505459 
_cell_angle_gamma                 120.27941874642904 
loop_ 
_atom_site_label 
_atom_site_type_symbol 
_atom_site_fract_x 
_atom_site_fract_y 
_atom_site_fract_z 
_atom_site_charge 
O1          O  0.59545760  0.25850670  0.20013764    -0.85800
O2          O  0.68584240  0.25356307  0.21679136    -0.82900
C3          C  0.72193566  0.28401434  0.19506695     0.97600
O4          O  0.74014183  0.33349400  0.19595265    -0.82900
O5          O  0.74767472  0.43005679  0.20956990    -0.85500
C6          C  0.71380889  0.43262825  0.18969228     1.02200
O7          O  0.66427175  0.40070514  0.19411985    -0.78300
O8          O  0.56887585  0.31377196  0.21623385    -0.78500
C9          C  0.56292205  0.27523311  0.19743392     1.02100
O10         O  0.57252393  0.26002108  0.27429095    -0.85800
O11         O  0.66715487  0.26374908  0.28962805    -0.82900
C12         C  0.71704579  0.28222790  0.29158741     0.97700
O13         O  0.74937647  0.31816869  0.27044389    -0.82900
O14         O  0.74811136  0.41077360  0.28371676    -0.85500
C15         C  0.72885308  0.44109443  0.28621554     1.02100
O16         O  0.69082741  0.43500292  0.26643596    -0.78300
O17         O  0.60067430  0.34345064  0.28779171    -0.78500
C18         C  0.56972221  0.29450522  0.29314490     1.02100
Cr19       Cr  0.63304170  0.26465416  0.24494455     1.93700
Cr20       Cr  0.74065974  0.37018598  0.24008144     1.93200
Cr21       Cr  0.63417291  0.37054138  0.24113797     1.39100
O22         O  0.66937199  0.33516693  0.24250375    -1.23600
O23         O  0.33339731  0.58944237  0.21273931    -0.85800
O24         O  0.42674198  0.68523666  0.22717394    -0.82900
C25         C  0.43144512  0.71968415  0.20479533     0.97600
O26         O  0.39586541  0.73254996  0.20246677    -0.82900
O27         O  0.30232665  0.73395241  0.21673697    -0.85500
C28         C  0.26408924  0.69764356  0.19928433     1.02200
O29         O  0.24690374  0.64920775  0.20598816    -0.78300
O30         O  0.25060965  0.56118470  0.23094850    -0.78500
C31         C  0.28407318  0.55470699  0.21281866     1.02100
O32         O  0.31146321  0.57166834  0.28666498    -0.85800
O33         O  0.39839940  0.67155815  0.30017213    -0.82900
C34         C  0.42993805  0.72124284  0.29885580     0.97700
O35         O  0.42359032  0.74904536  0.27573919    -0.82900
O36         O  0.32671422  0.74096609  0.29084102    -0.85500
C37         C  0.27681206  0.72133119  0.29509982     1.02100
O38         O  0.24403235  0.68173099  0.27696035    -0.78300
O39         O  0.25570371  0.59870194  0.30156732    -0.78500
C40         C  0.27424745  0.56814348  0.30642101     1.02100
Cr41       Cr  0.36448487  0.63196584  0.25620238     1.93700
Cr42       Cr  0.35923764  0.73366065  0.24675056     1.93200
Cr43       Cr  0.25491531  0.62566133  0.25359606     1.39100
O44         O  0.32609483  0.66372181  0.25173247    -1.23600
C45         C  0.87132386  0.86952712  0.42253653     0.79700
N46         N  0.87336076  0.82462283  0.41496318    -0.78600
C47         C  0.82984190  0.78182469  0.40047519     0.82200
N48         N  0.78510470  0.78437802  0.39368786    -0.78500
C49         C  0.78316410  0.82893284  0.40041430     0.82300
N50         N  0.82595390  0.87129370  0.41532619    -0.80200
C51         C  0.85969835  0.86707038  0.06087270     0.79700
N52         N  0.85333459  0.81755320  0.06472150    -0.78600
C53         C  0.80853129  0.77826489  0.08097063     0.82200
N54         N  0.77066288  0.78886621  0.09317246    -0.78500
C55         C  0.77674005  0.83780829  0.08947011     0.82300
N56         N  0.82119801  0.87704942  0.07326995    -0.80200
C57         C  0.12605764  0.98322344  0.06197441     0.79700
N58         N  0.11880018  0.93388469  0.06896738    -0.78600
C59         C  0.15939652  0.92939735  0.08363397     0.82200
N60         N  0.20642107  0.97376258  0.09111764    -0.78500
C61         C  0.21407405  0.02279294  0.08478896     0.82300
N62         N  0.17387937  0.02762196  0.06993403    -0.80200
C63         C  0.13924274  0.01496046  0.42557711     0.79700
N64         N  0.14126154  0.97026549  0.41767977    -0.78600
C65         C  0.18750431  0.97434778  0.40537097     0.82200
N66         N  0.23168635  0.02302474  0.40162435    -0.78500
C67         C  0.23021230  0.06771860  0.40900647     0.82300
N68         N  0.18388152  0.06391049  0.42109328    -0.80200
C69         C  0.99115523  0.13587237  0.43692844     0.79700
N70         N  0.03673509  0.18449325  0.43351545    -0.78600
C71         C  0.03324430  0.22775080  0.42441596     0.82200
N72         N  0.98452346  0.22223427  0.41903582    -0.78500
C73         C  0.93892069  0.17462757  0.42198180     0.82300
N74         N  0.94194651  0.13080849  0.43083812    -0.80200
C75         C  0.00836465  0.12862483  0.07157553     0.79700
N76         N  0.96406539  0.13351267  0.07629870    -0.78600
C77         C  0.96765342  0.17505835  0.09483624     0.82200
N78         N  0.01537385  0.21154595  0.10861570    -0.78500
C79         C  0.05962920  0.20714454  0.10432662     0.82300
N80         N  0.05651106  0.16596148  0.08535750    -0.80200
O81         O  0.95870823  0.91733268  0.44729356    -0.85800
O82         O  0.06652153  0.96672296  0.46397010    -0.82900
C83         C  0.09408404  0.00951354  0.44685380     0.97600
O84         O  0.08701701  0.04852285  0.45119927    -0.82900
O85         O  0.03639798  0.10415515  0.47190471    -0.85500
C86         C  0.99496103  0.09235989  0.45394344     1.02200
O87         O  0.95558429  0.04544740  0.45389844    -0.78300
O88         O  0.89777416  0.93641685  0.46531745    -0.78500
C89         C  0.91214830  0.91093322  0.44530822     1.02100
O90         O  0.93090854  0.89440619  0.01991637    -0.85800
O91         O  0.03928977  0.94998403  0.03706482    -0.82900
C92         C  0.08645692  0.98871833  0.04057032     0.97700
O93         O  0.10197140  0.03145967  0.02344476    -0.82900
O94         O  0.04456459  0.08023488  0.04369919    -0.85500
C95         C  0.00529104  0.08768677  0.04729229     1.02100
O96         O  0.96421270  0.06325564  0.02803295    -0.78300
O97         O  0.91296381  0.95478066  0.03944797    -0.78500
C98         C  0.90441215  0.90784223  0.03977463     1.02100
Cr99       Cr  0.99897290  0.93769628  0.99232845     1.93700
Cr100      Cr  0.06201154  0.06065789  0.99729266     1.93200
Cr101      Cr  0.93799278  0.99978991  0.99652456     1.39100
O102        O  0.99964668  0.99938214  0.99523357    -1.23600
C103        C  0.23653268  0.71317571  0.17345319    -0.01800
C104        C  0.18533465  0.70464188  0.18155553    -0.09800
C105        C  0.16367645  0.73040111  0.16232007    -0.18600
C106        C  0.19297012  0.76558872  0.13425471     0.03800
C107        C  0.24280610  0.76994174  0.12418410     0.18000
C108        C  0.26438300  0.74440360  0.14410176    -0.20000
C109        C  0.27225617  0.80215218  0.09554982    -0.21300
C110        C  0.25541087  0.83328326  0.07828599    -0.19800
C111        C  0.20935087  0.83375676  0.08975585     0.19400
C112        C  0.17645010  0.79893228  0.11721179     0.01500
C113        C  0.13092117  0.80217155  0.12810496    -0.14600
C114        C  0.12157259  0.84165741  0.11452309    -0.12300
C115        C  0.15656538  0.87798087  0.08932580     0.01000
C116        C  0.19856436  0.87199090  0.07579209    -0.24500
H117        H  0.16343046  0.68059925  0.20430721     0.09000
H118        H  0.12479920  0.72337838  0.17074904     0.12600
H119        H  0.30408331  0.75085615  0.13784162     0.11300
H120        H  0.30963058  0.80475162  0.08724867     0.12500
H121        H  0.28018203  0.85932512  0.05705291     0.11500
H122        H  0.10385406  0.77704510  0.14863275     0.08600
H123        H  0.08940531  0.84627860  0.12565249     0.11900
H124        H  0.22592534  0.90050340  0.05643416     0.13700
C125        C  0.25739029  0.74729116  0.31998443    -0.01800
C126        C  0.29321218  0.78425444  0.34425650    -0.09800
C127        C  0.27887378  0.81528813  0.36430528    -0.18600
C128        C  0.22814674  0.81116893  0.36025307     0.03800
C129        C  0.19042405  0.77110582  0.33740794     0.18000
C130        C  0.20507280  0.73910710  0.31784854    -0.20000
C131        C  0.13949233  0.76531814  0.33279189    -0.21300
C132        C  0.12665983  0.80095361  0.34836075    -0.19800
C133        C  0.16439340  0.84310592  0.36899628     0.19400
C134        C  0.21492572  0.84751087  0.37630737     0.01500
C135        C  0.25148412  0.89016447  0.39764306    -0.14600
C136        C  0.24066308  0.92951014  0.40824304    -0.12300
C137        C  0.19264604  0.92720226  0.39890158     0.01000
C138        C  0.15334932  0.88262327  0.38077217    -0.24500
H139        H  0.33341269  0.79049483  0.34704334     0.09000
H140        H  0.30935823  0.84347388  0.38173218     0.12600
H141        H  0.17683009  0.71016561  0.29937051     0.11300
H142        H  0.11016844  0.73434758  0.31588118     0.12500
H143        H  0.08771590  0.79671462  0.34310357     0.11500
H144        H  0.28978437  0.89558848  0.40556291     0.08600
H145        H  0.27093689  0.96300415  0.42309121     0.11900
H146        H  0.11588125  0.88057181  0.37373829     0.13700
C147        C  0.73238966  0.82781384  0.39463155    -0.01800
C148        C  0.68687587  0.79098708  0.41356411    -0.09800
C149        C  0.63570241  0.77910128  0.40312649    -0.18600
C150        C  0.62866117  0.80275607  0.37249338     0.03800
C151        C  0.67549760  0.84331922  0.35504850     0.18000
C152        C  0.72694061  0.85571153  0.36639417    -0.20000
C153        C  0.67063416  0.86896479  0.32518401    -0.21300
C154        C  0.62032656  0.85346096  0.31122183    -0.19800
C155        C  0.57383505  0.81121039  0.32635753     0.19400
C156        C  0.57711579  0.78557538  0.35745369     0.01500
C157        C  0.52910200  0.74153333  0.37070649    -0.14600
C158        C  0.48069276  0.72184301  0.35250361    -0.12300
C159        C  0.47818123  0.74642990  0.32136263    -0.00800
C160        C  0.52444071  0.79244144  0.30930405    -0.24500
H161        H  0.69083179  0.76945856  0.93566743     0.09000
H162        H  0.60261425  0.74996081  0.41876259     0.12600
H163        H  0.76239907  0.88407527  0.35169827     0.11300
H164        H  0.70604006  0.90016895  0.31193584     0.12500
H165        H  0.61798878  0.87310958  0.28749806     0.11500
H166        H  0.52803078  0.71986531  0.39402313     0.08600
H167        H  0.44536776  0.68638982  0.36235638     0.11900
H168        H  0.52293983  0.81156626  0.28507897     0.13700
C169        C  0.73492870  0.84678534  0.10399950    -0.01800
C170        C  0.69243538  0.83979001  0.08264714    -0.09800
C171        C  0.64363626  0.82915757  0.09791709    -0.18600
C172        C  0.63597621  0.82370188  0.13504673     0.03800
C173        C  0.68123648  0.83543082  0.15636944     0.18000
C174        C  0.73023611  0.84760566  0.14065895    -0.20000
C175        C  0.67623902  0.83035563  0.19315128    -0.21300
C176        C  0.62622643  0.80937571  0.20919480    -0.19800
C177        C  0.58036355  0.79382271  0.18878787     0.19400
C178        C  0.58453780  0.80302794  0.15167113     0.01500
C179        C  0.53657231  0.78832624  0.13284531    -0.14600
C180        C  0.48637513  0.76244572  0.14996290    -0.12300
C181        C  0.48294183  0.75001271  0.18593442     0.01000
C182        C  0.53002621  0.76709307  0.20527211    -0.24500
H183        H  0.69558631  0.83845145  0.55410821     0.09000
H184        H  0.61163401  0.82184210  0.07994884     0.12600
H185        H  0.76329096  0.85244082  0.15700720     0.11300
H186        H  0.71079811  0.83995322  0.20948779     0.12500
H187        H  0.62312081  0.80340626  0.23759888     0.11500
H188        H  0.53654527  0.79556338  0.10483866     0.08600
H189        H  0.45021057  0.75053759  0.13490829     0.11900
H190        H  0.52733324  0.75870531  0.23341905     0.13700
C191        C  0.24914762  0.52470411  0.33286050    -0.01800
C192        C  0.20955809  0.52143387  0.35606739    -0.09800
C193        C  0.18010130  0.47656889  0.37735735    -0.18600
C194        C  0.18872698  0.43282049  0.37564718     0.03800
C195        C  0.23036958  0.43719184  0.35305077     0.18000
C196        C  0.26061346  0.48317071  0.33244192    -0.20000
C197        C  0.23969958  0.39456303  0.34972953    -0.21300
C198        C  0.20628570  0.34630332  0.36665679    -0.19800
C199        C  0.16327274  0.33983586  0.38773686     0.19400
C200        C  0.15539371  0.38376793  0.39376412     0.01500
C201        C  0.11262626  0.37582830  0.41621757    -0.14600
C202        C  0.07569627  0.32526440  0.42863208    -0.12300
C203        C  0.08058451  0.28117206  0.41975756     0.01000
C204        C  0.12607350  0.28897750  0.40104281    -0.24500
H205        H  0.20005094  0.55299874  0.35699136     0.09000
H206        H  0.14935106  0.47657782  0.39375034     0.12600
H207        H  0.29108495  0.48515113  0.31445312     0.11300
H208        H  0.27171822  0.39783607  0.33273669     0.12500
H209        H  0.21308174  0.31335910  0.36231897     0.11500
H210        H  0.10529779  0.40739057  0.42359442     0.08600
H211        H  0.04130807  0.32011084  0.94380112     0.11900
H212        H  0.13007970  0.25494001  0.39428074     0.13700
C213        C  0.11026687  0.24951383  0.11904884    -0.01800
C214        C  0.14698498  0.29094422  0.09719366    -0.09800
C215        C  0.18457731  0.34009376  0.11164721    -0.18600
C216        C  0.18551947  0.34925863  0.14849987     0.03800
C217        C  0.15066275  0.30537498  0.17056161     0.18000
C218        C  0.11395707  0.25617697  0.15569506    -0.20000
C219        C  0.14954119  0.31181502  0.20714250    -0.21300
C220        C  0.17910866  0.36181145  0.22215399    -0.19800
C221        C  0.21076211  0.40642065  0.20094327     0.19400
C222        C  0.21657040  0.40081436  0.16406639     0.01500
C223        C  0.25092591  0.44754793  0.14437474    -0.14600
C224        C  0.27508047  0.49791063  0.16025072    -0.12300
C225        C  0.26516104  0.50279547  0.19590245     0.01000
C226        C  0.23465985  0.45693847  0.21627243    -0.24500
H227        H  0.14382137  0.28667116  0.56869076     0.09000
H228        H  0.21012331  0.37108655  0.09316616     0.12600
H229        H  0.08474712  0.22422810  0.17253390     0.11300
H230        H  0.12360169  0.27833307  0.22409233     0.12500
H231        H  0.17556998  0.36591717  0.25040607     0.11500
H232        H  0.25884112  0.44647896  0.11651279     0.08600
H233        H  0.29962770  0.53310892  0.14437811     0.11900
H234        H  0.22835054  0.46081434  0.24423079     0.13700
C235        C  0.73765960  0.25882269  0.31692401    -0.01800
C236        C  0.72509203  0.20602277  0.31284495    -0.09800
C237        C  0.74882796  0.18466597  0.33441202    -0.18600
C238        C  0.78551922  0.21570344  0.36106306     0.03800
C239        C  0.79496937  0.26823046  0.36647432     0.18000
C240        C  0.77179269  0.28950295  0.34405152    -0.20000
C241        C  0.82876533  0.29980595  0.39355513    -0.21300
C242        C  0.85582849  0.28158773  0.41423597    -0.19800
C243        C  0.85089854  0.23200158  0.40761778     0.19400
C244        C  0.81499037  0.19768422  0.38147316     0.01500
C245        C  0.81326941  0.14869551  0.37533666    -0.14600
C246        C  0.85005273  0.13735864  0.39163422    -0.12300
C247        C  0.88811328  0.17376696  0.41510015     0.01000
C248        C  0.88533392  0.21876723  0.42493635    -0.24500
H249        H  0.69822105  0.18178891  0.29201414     0.09000
H250        H  0.73819133  0.14403434  0.32935792     0.12600
H251        H  0.78079141  0.33025820  0.34738084     0.11300
H252        H  0.83536288  0.33944693  0.39821336     0.12500
H253        H  0.88304009  0.30767398  0.93430538     0.11500
H254        H  0.78669355  0.12021209  0.35622214     0.08600
H255        H  0.85163047  0.10243595  0.38363889     0.11900
H256        H  0.91449855  0.24680151  0.94346117     0.13700
C257        C  0.92176658  0.18356515  0.09860580    -0.01800
C258        C  0.92807303  0.23256414  0.08836688    -0.09800
C259        C  0.88984602  0.24640086  0.09766621    -0.18600
C260        C  0.84472139  0.21203269  0.11873962     0.03800
C261        C  0.83751571  0.16132221  0.12788863     0.18000
C262        C  0.87540621  0.14707716  0.11705334    -0.20000
C263        C  0.79450533  0.12662254  0.14970359    -0.21300
C264        C  0.76051502  0.14250300  0.16451420    -0.19800
C265        C  0.76813170  0.19308198  0.15733485     0.19400
C266        C  0.80882989  0.22768373  0.13313479     0.01500
C267        C  0.81356491  0.27759614  0.12589186    -0.14600
C268        C  0.78312656  0.29458862  0.14465931    -0.12300
C269        C  0.74629742  0.26212796  0.17068171     0.01000
C270        C  0.73713596  0.21037377  0.17562780    -0.24500
H271        H  0.96393894  0.26119600  0.57410182     0.09000
H272        H  0.89836824  0.28539251  0.08953748     0.12600
H273        H  0.87103149  0.10940523  0.12536358     0.11300
H274        H  0.78855956  0.08786243  0.15663889     0.12500
H275        H  0.72907940  0.11564501  0.18258649     0.11500
H276        H  0.84149218  0.30509992  0.10662058     0.08600
H277        H  0.78988973  0.33416024  0.13961187     0.11900
H278        H  0.70813041  0.18454699  0.19533981     0.13700
C279        C  0.73185270  0.47657105  0.16363761    -0.01800
C280        C  0.78646474  0.51505212  0.16016046    -0.09800
C281        C  0.80269060  0.56194914  0.14100883    -0.18600
C282        C  0.76443697  0.57223142  0.12517950     0.03800
C283        C  0.70942603  0.53143344  0.12688447     0.18000
C284        C  0.69389591  0.48398927  0.14539442    -0.20000
C285        C  0.66969240  0.53937831  0.11196116    -0.21300
C286        C  0.68289019  0.58832427  0.09743705    -0.19800
C287        C  0.73621996  0.63021606  0.09705431     0.19400
C288        C  0.77818210  0.62239726  0.10958406     0.01500
C289        C  0.83156059  0.66600581  0.10745019    -0.14600
C290        C  0.84211238  0.71617581  0.09591008    -0.12300
C291        C  0.79991761  0.72422630  0.08629594     0.01000
C292        C  0.74741124  0.68064593  0.08570528    -0.24500
H293        H  0.81674777  0.51004558  0.17360119     0.09000
H294        H  0.84518689  0.59034647  0.14043333     0.12600
H295        H  0.65155633  0.45430330  0.14754487     0.11300
H296        H  0.62779165  0.50824931  0.11287229     0.12500
H297        H  0.65089260  0.59395219  0.08742054     0.11500
H298        H  0.86577453  0.66298863  0.11546451     0.08600
H299        H  0.88302326  0.74933975  0.09633387     0.11900
H300        H  0.71464478  0.68652886  0.57764783     0.13700
C301        C  0.75199699  0.48594546  0.31108376    -0.01800
C302        C  0.80566396  0.52653993  0.30764495    -0.09800
C303        C  0.82514219  0.57365889  0.32702909    -0.18600
C304        C  0.79119501  0.58113878  0.35065902     0.03800
C305        C  0.73797653  0.53766564  0.35597322     0.18000
C306        C  0.71882199  0.49106921  0.33592489    -0.20000
C307        C  0.70326046  0.54180226  0.38005777    -0.21300
C308        C  0.71871467  0.58949887  0.39714714    -0.19800
C309        C  0.76892848  0.63437231  0.39011619     0.19400
C310        C  0.80678552  0.63074480  0.36773822     0.01500
C311        C  0.85697444  0.67783314  0.36174858    -0.14600
C312        C  0.86686755  0.72712737  0.37480030    -0.12300
C313        C  0.82736391  0.73051849  0.39438646     0.01000
C314        C  0.77982742  0.68367443  0.40343984    -0.24500
H315        H  0.83184319  0.52291546  0.28855091     0.09000
H316        H  0.86638783  0.60401017  0.32228452     0.12600
H317        H  0.67734450  0.45924291  0.33878141     0.11300
H318        H  0.66311487  0.50843163  0.38478295     0.12500
H319        H  0.69013848  0.59200237  0.41465831     0.11500
H320        H  0.88814857  0.67825322  0.34559230     0.08600
H321        H  0.90391778  0.76295987  0.36761702     0.11900
H322        H  0.74942918  0.68618611  0.41903284     0.13700
C323        C  0.28066005  0.11868976  0.40592669    -0.01800
C324        C  0.32656941  0.12299797  0.42156040    -0.09800
C325        C  0.37762914  0.16113709  0.40987392    -0.18600
C326        C  0.38397814  0.19504157  0.38123264     0.03800
C327        C  0.33741850  0.19488202  0.36857228     0.18000
C328        C  0.28607473  0.15692619  0.38126684    -0.20000
C329        C  0.34207837  0.22956387  0.34132916    -0.21300
C330        C  0.39129167  0.26148427  0.32454011    -0.19800
C331        C  0.43656664  0.25840609  0.33405715     0.19400
C332        C  0.43392949  0.22595130  0.36303182     0.01500
C333        C  0.48001038  0.22205832  0.37043257    -0.14600
C334        C  0.52522882  0.24630318  0.34842010    -0.12300
C335        C  0.52668119  0.27680027  0.31951546     0.01000
C336        C  0.48335158  0.28457980  0.31318667    -0.24500
H337        H  0.32280175  0.09416405  0.44124039     0.09000
H338        H  0.41109278  0.16120748  0.42253593     0.12600
H339        H  0.25037512  0.15364842  0.36931733     0.11300
H340        H  0.30700551  0.23039066  0.33194865     0.12500
H341        H  0.39320962  0.28644592  0.30264161     0.11500
H342        H  0.48127532  0.19808709  0.39170574     0.08600
H343        H  0.55863662  0.23998418  0.35336723     0.11900
H344        H  0.48453042  0.30766973  0.29030442     0.13700
C345        C  0.26720398  0.06915008  0.09296047    -0.01800
C346        C  0.27265873  0.11571401  0.10765172    -0.09800
C347        C  0.32224513  0.15474423  0.12127595    -0.18600
C348        C  0.36773334  0.14799650  0.12046629     0.03800
C349        C  0.36246215  0.10242234  0.10297709     0.18000
C350        C  0.31275009  0.06387151  0.08955455    -0.20000
C351        C  0.40623699  0.09428749  0.10016569    -0.21300
C352        C  0.45493213  0.12937336  0.11573020    -0.19800
C353        C  0.46076355  0.17300041  0.13493113     0.19400
C354        C  0.41761298  0.18351349  0.13725274     0.01500
C355        C  0.42565144  0.22767601  0.15758975    -0.14600
C356        C  0.47361778  0.25862444  0.17589449    -0.12300
C357        C  0.51528481  0.24697031  0.17435718     0.01000
C358        C  0.50895736  0.20488708  0.15301505    -0.24500
H359        H  0.23799075  0.12072000  0.11023364     0.09000
H360        H  0.32342803  0.18908372  0.13300498     0.12600
H361        H  0.30896959  0.02830308  0.57748853     0.11300
H362        H  0.40243181  0.05982255  0.58646868     0.12500
H363        H  0.48774078  0.12135785  0.11368970     0.11500
H364        H  0.39499297  0.23823552  0.16080972     0.08600
H365        H  0.47731293  0.29081150  0.19228399     0.11900
H366        H  0.54088649  0.19549615  0.15153722     0.13700
O367        O  0.59545755  0.25851070  0.70012671    -0.85800
O368        O  0.68584134  0.25356416  0.71677811    -0.82900
C369        C  0.72193547  0.28401706  0.69505482     0.97600
O370        O  0.74014208  0.33349666  0.69594249    -0.82900
O371        O  0.74767477  0.43005766  0.70956262    -0.85500
C372        C  0.71380867  0.43262868  0.68968509     1.02200
O373        O  0.66427139  0.40070632  0.69411341    -0.78300
O374        O  0.56887514  0.31377360  0.71622729    -0.78500
C375        C  0.56292135  0.27523646  0.69742532     1.02100
O376        O  0.57252415  0.26001947  0.77428117    -0.85800
O377        O  0.66715374  0.26374380  0.78961566    -0.82900
C378        C  0.71704459  0.28222284  0.79157547     0.97700
O379        O  0.74937588  0.31816581  0.77043325    -0.82900
O380        O  0.74811168  0.41077034  0.78370916    -0.85500
C381        C  0.72885502  0.44109242  0.78620875     1.02100
O382        O  0.69082904  0.43500212  0.76642988    -0.78300
O383        O  0.60067559  0.34344836  0.78778501    -0.78500
C384        C  0.56972343  0.29450253  0.79313705     1.02100
Cr385      Cr  0.63304113  0.26465362  0.74493311     1.93700
Cr386      Cr  0.74065976  0.37018534  0.74007263     1.93200
Cr387      Cr  0.63417338  0.37054143  0.74113136     1.39100
O388        O  0.66937206  0.33516652  0.74249504    -1.23600
O389        O  0.33340140  0.58944829  0.71273815    -0.85800
O390        O  0.42674346  0.68524291  0.72717255    -0.82900
C391        C  0.43144055  0.71968701  0.70479311     0.97600
O392        O  0.39585958  0.73255141  0.70246744    -0.82900
O393        O  0.30232159  0.73395154  0.71674269    -0.85500
C394        C  0.26408493  0.69764228  0.69928971     1.02200
O395        O  0.24690211  0.64920672  0.70599231    -0.78300
O396        O  0.25061360  0.56118539  0.73094941    -0.78500
C397        C  0.28407792  0.55471116  0.71281789     1.02100
O398        O  0.31146963  0.57166885  0.78666392    -0.85800
O399        O  0.39840299  0.67156016  0.80017150    -0.82900
C400        C  0.42994120  0.72124494  0.79885545     0.97700
O401        O  0.42359232  0.74904751  0.77573942    -0.82900
O402        O  0.32671514  0.74096411  0.79084573    -0.85500
C403        C  0.27681292  0.72132808  0.79510515     1.02100
O404        O  0.24403323  0.68172765  0.77696569    -0.78300
O405        O  0.25570957  0.59870036  0.80156928    -0.78500
C406        C  0.27425374  0.56814199  0.80642091     1.02100
Cr407      Cr  0.36448879  0.63196925  0.75620170     1.93700
Cr408      Cr  0.35923620  0.73366124  0.74675337     1.93200
Cr409      Cr  0.25491712  0.62565997  0.75359914     1.39100
O410        O  0.32609613  0.66372267  0.75173435    -1.23600
C411        C  0.87132850  0.86952148  0.92253367     0.79700
N412        N  0.87336862  0.82461876  0.91496095    -0.78600
C413        C  0.82985202  0.78181969  0.90047164     0.82200
N414        N  0.78511414  0.78437064  0.89368253    -0.78500
C415        C  0.78317046  0.82892415  0.90040804     0.82300
N416        N  0.82595803  0.87128593  0.91532139    -0.80200
C417        C  0.85968860  0.86706526  0.56086734     0.79700
N418        N  0.85332500  0.81754816  0.56471470    -0.78600
C419        C  0.80851571  0.77825511  0.58095551     0.82200
N420        N  0.77064041  0.78885182  0.59314990    -0.78500
C421        C  0.77671746  0.83779396  0.58944865     0.82300
N422        N  0.82118220  0.87704008  0.57325790    -0.80200
C423        C  0.12605059  0.98321724  0.56197835     0.79700
N424        N  0.11879298  0.93387842  0.56897135    -0.78600
C425        C  0.15938890  0.92939094  0.58363830     0.82200
N426        N  0.20641377  0.97375626  0.59112224    -0.78500
C427        C  0.21406634  0.02278659  0.58479362     0.82300
N428        N  0.17387197  0.02761550  0.56993848    -0.80200
C429        C  0.13924837  0.01496438  0.92557576     0.79700
N430        N  0.14126752  0.97026998  0.91767811    -0.78600
C431        C  0.18751113  0.97435243  0.90537051     0.82200
N432        N  0.23169336  0.02302934  0.90162543    -0.78500
C433        C  0.23021943  0.06772310  0.90900787     0.82300
N434        N  0.18388793  0.06391493  0.92109363    -0.80200
C435        C  0.99115067  0.13586541  0.93692058     0.79700
N436        N  0.03673027  0.18448601  0.93350649    -0.78600
C437        C  0.03323942  0.22774280  0.92440536     0.82200
N438        N  0.98451853  0.22222602  0.91902473    -0.78500
C439        C  0.93891573  0.17461932  0.92197159     0.82300
N440        N  0.94194180  0.13080086  0.93082974    -0.80200
C441        C  0.00837209  0.12863044  0.57157765     0.79700
N442        N  0.96407549  0.13352283  0.57629936    -0.78600
C443        C  0.96766763  0.17507374  0.59483235     0.82200
N444        N  0.01538998  0.21156222  0.60860925    -0.78500
C445        C  0.05964266  0.20715579  0.60432198     0.82300
N446        N  0.05652039  0.16596746  0.58535727    -0.80200
O447        O  0.95871158  0.91733004  0.94729194    -0.85800
O448        O  0.06652524  0.96672519  0.96396749    -0.82900
C449        C  0.09408794  0.00951641  0.94685137     0.97600
O450        O  0.08701939  0.04852470  0.95119618    -0.82900
O451        O  0.03639462  0.10415269  0.97189958    -0.85500
C452        C  0.99495778  0.09235487  0.95393738     1.02200
O453        O  0.95558252  0.04544160  0.95389263    -0.78300
O454        O  0.89777527  0.93641167  0.96531448    -0.78500
C455        C  0.91215106  0.91092864  0.94530596     1.02100
O456        O  0.93090435  0.89440563  0.51991646    -0.85800
O457        O  0.03928421  0.94997963  0.53706700    -0.82900
C458        C  0.08645163  0.98871298  0.54057325     0.97700
O459        O  0.10196819  0.03145476  0.52344771    -0.82900
O460        O  0.04456690  0.08023454  0.54370334    -0.85500
C461        C  0.00529478  0.08768840  0.54729686     1.02100
O462        O  0.96421485  0.06325690  0.52803881    -0.78300
O463        O  0.91296157  0.95477999  0.53945106    -0.78500
C464        C  0.90440743  0.90784069  0.53977488     1.02100
Cr465      Cr  0.99896912  0.93769546  0.49233029     1.93700
Cr466      Cr  0.06201153  0.06065672  0.49729639     1.93200
Cr467      Cr  0.93799275  0.99979266  0.49652901     1.39100
O468        O  0.99964528  0.99938247  0.49523702    -1.23600
C469        C  0.23652720  0.71317330  0.67345885    -0.01800
C470        C  0.18532894  0.70463897  0.68156142    -0.09800
C471        C  0.16366959  0.73039633  0.66232525    -0.18600
C472        C  0.19296192  0.76558254  0.63425907     0.03800
C473        C  0.24279788  0.76993577  0.62418838     0.18000
C474        C  0.26437621  0.74439963  0.64410670    -0.20000
C475        C  0.27224770  0.80214532  0.59555333    -0.21300
C476        C  0.25540114  0.83327538  0.57828936    -0.19800
C477        C  0.20934167  0.83374917  0.58975921     0.19400
C478        C  0.17644097  0.79892498  0.61721576     0.01500
C479        C  0.13091298  0.80216489  0.62810843    -0.14600
C480        C  0.12156332  0.84165070  0.61452750    -0.12300
C481        C  0.15655749  0.87797420  0.58932983     0.01000
C482        C  0.19855536  0.87198354  0.57579562    -0.24500
H483        H  0.16342570  0.68059733  0.70431352     0.09000
H484        H  0.12479065  0.72337322  0.67075441     0.12600
H485        H  0.30407683  0.75085212  0.63784626     0.11300
H486        H  0.30961937  0.80474442  0.58725272     0.12500
H487        H  0.28017288  0.85931745  0.55705503     0.11500
H488        H  0.10384233  0.77703532  0.64863867     0.08600
H489        H  0.08940129  0.84627171  0.62565505     0.11900
H490        H  0.22591662  0.90049616  0.55643738     0.13700
C491        C  0.25739095  0.74728762  0.81998996    -0.01800
C492        C  0.29321179  0.78424872  0.84426343    -0.09800
C493        C  0.27887386  0.81528347  0.86431107    -0.18600
C494        C  0.22814932  0.81116851  0.86025642     0.03800
C495        C  0.19042678  0.77110642  0.83741062     0.18000
C496        C  0.20507437  0.73910600  0.81785203    -0.20000
C497        C  0.13949650  0.76532106  0.83279317    -0.21300
C498        C  0.12666437  0.80095754  0.84836118    -0.19800
C499        C  0.16439885  0.84310960  0.86899676     0.19400
C500        C  0.21493024  0.84751294  0.87630894     0.01500
C501        C  0.25148912  0.89016742  0.89764309    -0.14600
C502        C  0.24067075  0.92951551  0.90824256    -0.12300
C503        C  0.19265252  0.92720676  0.89890074     0.01000
C504        C  0.15335573  0.88262797  0.88077185    -0.24500
H505        H  0.33341141  0.79048643  0.84705186     0.09000
H506        H  0.30935900  0.84346910  0.88174079     0.12600
H507        H  0.17683356  0.71016733  0.79937404     0.11300
H508        H  0.11017175  0.73435043  0.81588161     0.12500
H509        H  0.08772450  0.79672040  0.84310347     0.11500
H510        H  0.28979305  0.89559227  0.90556298     0.08600
H511        H  0.27093997  0.96300422  0.92308763     0.11900
H512        H  0.11588726  0.88057701  0.87373768     0.13700
C513        C  0.73239448  0.82780191  0.89462493    -0.01800
C514        C  0.68688039  0.79097030  0.91355488    -0.09800
C515        C  0.63570696  0.77908560  0.90311896    -0.18600
C516        C  0.62866539  0.80274716  0.87248944     0.03800
C517        C  0.67550189  0.84331428  0.85504658     0.18000
C518        C  0.72694454  0.85570463  0.86639126    -0.20000
C519        C  0.67063754  0.86896547  0.82518561    -0.21300
C520        C  0.62032989  0.85346437  0.81122441    -0.19800
C521        C  0.57383841  0.81121066  0.82635830     0.19400
C522        C  0.57711978  0.78557009  0.85745130     0.01500
C523        C  0.52910596  0.74152654  0.87070294    -0.14600
C524        C  0.48069689  0.72183983  0.85250083    -0.12300
C525        C  0.47818443  0.74643075  0.82136230    -0.00800
C526        C  0.52444363  0.79244474  0.80930559    -0.24500
H527        H  0.69082683  0.76948084  0.43567810     0.09000
H528        H  0.60261906  0.74994124  0.91875324     0.12600
H529        H  0.76240591  0.88407445  0.85169589     0.11300
H530        H  0.70604450  0.90017360  0.81193840     0.12500
H531        H  0.61799177  0.87311704  0.78750392     0.11500
H532        H  0.52803496  0.71985524  0.89401701     0.08600
H533        H  0.44537033  0.68638336  0.86235293     0.11900
H534        H  0.52294228  0.81157302  0.78508327     0.13700
C535        C  0.73490256  0.84676839  0.60397382    -0.01800
C536        C  0.69240033  0.83974963  0.58262108    -0.09800
C537        C  0.64360346  0.82911940  0.59789306    -0.18600
C538        C  0.63595291  0.82368790  0.63502350     0.03800
C539        C  0.68122086  0.83543790  0.65634466     0.18000
C540        C  0.73021910  0.84761164  0.64063253    -0.20000
C541        C  0.67623327  0.83038539  0.69312774    -0.21300
C542        C  0.62622383  0.80940875  0.70917554    -0.19800
C543        C  0.58035443  0.79383694  0.68877151     0.19400
C544        C  0.58451827  0.80301846  0.65165206     0.01500
C545        C  0.53654663  0.78829850  0.63282891    -0.14600
C546        C  0.48635474  0.76242315  0.64995182    -0.12300
C547        C  0.48293163  0.75001338  0.68592672     0.01000
C548        C  0.53002154  0.76711228  0.70526116    -0.24500
H549        H  0.69562841  0.83851005  0.05413061     0.09000
H550        H  0.61159096  0.82178554  0.57992340     0.12600
H551        H  0.76328109  0.85246358  0.65698089     0.11300
H552        H  0.71079721  0.83999806  0.70946245     0.12500
H553        H  0.62312619  0.80345739  0.73758093     0.11500
H554        H  0.53651208  0.79551785  0.60481788     0.08600
H555        H  0.45018206  0.75049853  0.63489803     0.11900
H556        H  0.52733570  0.75874060  0.73341256     0.13700
C557        C  0.24915394  0.52470057  0.83285882    -0.01800
C558        C  0.20956664  0.52143146  0.85606770    -0.09800
C559        C  0.18010844  0.47656487  0.87735563    -0.18600
C560        C  0.18872908  0.43281381  0.87564203     0.03800
C561        C  0.23037013  0.43718431  0.85304392     0.18000
C562        C  0.26061533  0.48316463  0.83243704    -0.20000
C563        C  0.23969594  0.39455342  0.84972001    -0.21300
C564        C  0.20628101  0.34629334  0.86664585    -0.19800
C565        C  0.16326919  0.33982650  0.88772710     0.19400
C566        C  0.15539323  0.38376003  0.89375671     0.01500
C567        C  0.11262555  0.37582046  0.91621030    -0.14600
C568        C  0.07569423  0.32525648  0.92862276    -0.12300
C569        C  0.08057977  0.28116347  0.91974700     0.01000
C570        C  0.12606812  0.28896824  0.90103160    -0.24500
H571        H  0.20006317  0.55299744  0.85699442     0.09000
H572        H  0.14935838  0.47657515  0.89375151     0.12600
H573        H  0.29108751  0.48514465  0.81444520     0.11300
H574        H  0.27171566  0.39782630  0.83272501     0.12500
H575        H  0.21307448  0.31334691  0.86230596     0.11500
H576        H  0.10529892  0.40738415  0.92358837     0.08600
H577        H  0.04131378  0.32011913  0.44380876     0.11900
H578        H  0.13007271  0.25492908  0.89426819     0.13700
C579        C  0.11028245  0.24952484  0.61904171    -0.01800
C580        C  0.14699310  0.29095855  0.59718590    -0.09800
C581        C  0.18458575  0.34010775  0.61163949    -0.18600
C582        C  0.18553480  0.34926874  0.64849305     0.03800
C583        C  0.15068670  0.30538218  0.67055482     0.18000
C584        C  0.11397988  0.25618341  0.65568860    -0.20000
C585        C  0.14957209  0.31181737  0.70713726    -0.21300
C586        C  0.17913916  0.36181420  0.72214938    -0.19800
C587        C  0.21078314  0.40642611  0.70093881     0.19400
C588        C  0.21658434  0.40082382  0.66406045     0.01500
C589        C  0.25093015  0.44756032  0.64436867    -0.14600
C590        C  0.27508152  0.49792116  0.66024620    -0.12300
C591        C  0.26516904  0.50280198  0.69589960     0.01000
C592        C  0.23467782  0.45694275  0.71627013    -0.24500
H593        H  0.14381921  0.28665389  0.06869841     0.09000
H594        H  0.21012544  0.37110257  0.59315839     0.12600
H595        H  0.08477867  0.22423570  0.67252606     0.11300
H596        H  0.12364279  0.27833777  0.72408464     0.12500
H597        H  0.17560596  0.36591657  0.75040307     0.11500
H598        H  0.25884010  0.44649445  0.61650449     0.08600
H599        H  0.29962261  0.53312369  0.64437283     0.11900
H600        H  0.22837441  0.46081535  0.74422728     0.13700
C601        C  0.73765794  0.25881681  0.81691205    -0.01800
C602        C  0.72508892  0.20601606  0.81283275    -0.09800
C603        C  0.74882382  0.18465822  0.83440077    -0.18600
C604        C  0.78551464  0.21569555  0.86105213     0.03800
C605        C  0.79496521  0.26822268  0.86646343     0.18000
C606        C  0.77178983  0.28949582  0.84404013    -0.20000
C607        C  0.82876027  0.29979738  0.89354463    -0.21300
C608        C  0.85582261  0.28157872  0.91422583    -0.19800
C609        C  0.85089286  0.23199270  0.90760759     0.19400
C610        C  0.81498515  0.19767579  0.88146265     0.01500
C611        C  0.81326405  0.14868693  0.87532584    -0.14600
C612        C  0.85004776  0.13735051  0.89162364    -0.12300
C613        C  0.88810810  0.17375840  0.91508989     0.01000
C614        C  0.88532777  0.21875791  0.92492587    -0.24500
H615        H  0.69822070  0.18178463  0.79200366     0.09000
H616        H  0.73818701  0.14402875  0.82934674     0.12600
H617        H  0.78078943  0.33025229  0.84736967     0.11300
H618        H  0.83535801  0.33943893  0.89820305     0.12500
H619        H  0.88304654  0.30768343  0.43431532     0.11500
H620        H  0.78669008  0.12020539  0.85621215     0.08600
H621        H  0.85162553  0.10242705  0.88362804     0.11900
H622        H  0.91450264  0.24680870  0.44346990     0.13700
C623        C  0.92178197  0.18358229  0.59860167    -0.01800
C624        C  0.92808901  0.23258173  0.58836370    -0.09800
C625        C  0.88985976  0.24641725  0.59766070    -0.18600
C626        C  0.84473226  0.21204573  0.61873147     0.03800
C627        C  0.83752709  0.16133546  0.62788013     0.18000
C628        C  0.87541972  0.14709229  0.61704676    -0.20000
C629        C  0.79451461  0.12663379  0.64969279    -0.21300
C630        C  0.76052171  0.14251162  0.66450129    -0.19800
C631        C  0.76813689  0.19308989  0.65732250     0.19400
C632        C  0.80883767  0.22769430  0.63312456     0.01500
C633        C  0.81357181  0.27760663  0.62588179    -0.14600
C634        C  0.78312983  0.29459578  0.64464818    -0.12300
C635        C  0.74629876  0.26213318  0.67066896     0.01000
C636        C  0.73713821  0.21037921  0.67561382    -0.24500
H637        H  0.96392156  0.26117683  0.07410382     0.09000
H638        H  0.89838115  0.28540516  0.58953311     0.12600
H639        H  0.87104456  0.10942067  0.62535600     0.11300
H640        H  0.78856932  0.08787185  0.65662815     0.12500
H641        H  0.72908184  0.11564982  0.68257338     0.11500
H642        H  0.84149956  0.30511103  0.60661254     0.08600
H643        H  0.78989316  0.33416995  0.63960130     0.11900
H644        H  0.70813003  0.18454962  0.69532525     0.13700
C645        C  0.73185147  0.47656967  0.66362921    -0.01800
C646        C  0.78646338  0.51505216  0.66015233    -0.09800
C647        C  0.80268792  0.56194833  0.64099907    -0.18600
C648        C  0.76443219  0.57222691  0.62516826     0.03800
C649        C  0.70942203  0.53142690  0.62687303     0.18000
C650        C  0.69389452  0.48398480  0.64538433    -0.20000
C651        C  0.66968781  0.53936890  0.61194821    -0.21300
C652        C  0.68288295  0.58831262  0.59742296    -0.19800
C653        C  0.73621127  0.63020682  0.59704038     0.19400
C654        C  0.77817526  0.62239143  0.60957184     0.01500
C655        C  0.83155215  0.66600229  0.60743859    -0.14600
C656        C  0.84210108  0.71617031  0.59589777    -0.12300
C657        C  0.79990503  0.72421789  0.58628189     0.01000
C658        C  0.74740026  0.68063512  0.58569050    -0.24500
H659        H  0.81674542  0.51004866  0.67359326     0.09000
H660        H  0.84518020  0.59034430  0.64042372     0.12600
H661        H  0.65155231  0.45429506  0.64753466     0.11300
H662        H  0.62778425  0.50823524  0.61285929     0.12500
H663        H  0.65088191  0.59393857  0.58740458     0.11500
H664        H  0.86576975  0.66298717  0.61545464     0.08600
H665        H  0.88301371  0.74933843  0.59632206     0.11900
H666        H  0.71465896  0.68654206  0.07766452     0.13700
C667        C  0.75200166  0.48594349  0.81107688    -0.01800
C668        C  0.80566757  0.52653924  0.80763455    -0.09800
C669        C  0.82514831  0.57365740  0.82701940    -0.18600
C670        C  0.79120556  0.58113609  0.85065380     0.03800
C671        C  0.73798836  0.53766162  0.85597174     0.18000
C672        C  0.71883160  0.49106632  0.83592231    -0.20000
C673        C  0.70327742  0.54179714  0.88006095    -0.21300
C674        C  0.71873278  0.58949334  0.89715194    -0.19800
C675        C  0.76894505  0.63436790  0.89011685     0.19400
C676        C  0.80679782  0.63074170  0.86773424     0.01500
C677        C  0.85698465  0.67783123  0.86174060    -0.14600
C678        C  0.86687763  0.72712502  0.87479323    -0.12300
C679        C  0.82737730  0.73051493  0.89438390     0.01000
C680        C  0.77984420  0.68366984  0.90344144    -0.24500
H681        H  0.83184423  0.52291551  0.78853668     0.09000
H682        H  0.86639454  0.60401073  0.82227195     0.12600
H683        H  0.67735117  0.45923631  0.83878202     0.11300
H684        H  0.66313136  0.50842450  0.88478928     0.12500
H685        H  0.69016382  0.59199550  0.91466461     0.11500
H686        H  0.88815441  0.67825242  0.84558140     0.08600
H687        H  0.90392592  0.76295909  0.86760630     0.11900
H688        H  0.74944906  0.68618065  0.91903738     0.13700
C689        C  0.28066845  0.11869401  0.90592940    -0.01800
C690        C  0.32657782  0.12299753  0.92155968    -0.09800
C691        C  0.37763734  0.16113417  0.90987165    -0.18600
C692        C  0.38398644  0.19504180  0.88123244     0.03800
C693        C  0.33742792  0.19488837  0.86857655     0.18000
C694        C  0.28608353  0.15693421  0.88127215    -0.20000
C695        C  0.34208843  0.22957492  0.84133642    -0.21300
C696        C  0.39130076  0.26149360  0.82454620    -0.19800
C697        C  0.43657386  0.25840916  0.83405802     0.19400
C698        C  0.43393625  0.22594893  0.86302947     0.01500
C699        C  0.48001426  0.22204851  0.87042461    -0.14600
C700        C  0.52523139  0.24629244  0.84841041    -0.12300
C701        C  0.52668401  0.27679613  0.81950926     0.01000
C702        C  0.48335709  0.28458180  0.81318560    -0.24500
H703        H  0.32280967  0.09416030  0.94123807     0.09000
H704        H  0.41110198  0.16120063  0.92253105     0.12600
H705        H  0.25038704  0.15366089  0.86932638     0.11300
H706        H  0.30701626  0.23040671  0.83195958     0.12500
H707        H  0.39321920  0.28646085  0.80264874     0.11500
H708        H  0.48127838  0.19807171  0.89169505     0.08600
H709        H  0.55863332  0.23996891  0.85335285     0.11900
H710        H  0.48453642  0.30767640  0.79030650     0.13700
C711        C  0.26719565  0.06914435  0.59296460    -0.01800
C712        C  0.27264866  0.11570569  0.60765887    -0.09800
C713        C  0.32223539  0.15473832  0.62128117    -0.18600
C714        C  0.36772638  0.14799497  0.62046570     0.03800
C715        C  0.36245670  0.10242349  0.60297344     0.18000
C716        C  0.31274371  0.06387044  0.58955382    -0.20000
C717        C  0.40623430  0.09429388  0.60015628    -0.21300
C718        C  0.45493123  0.12938218  0.61571828    -0.19800
C719        C  0.46076104  0.17300631  0.63492242     0.19400
C720        C  0.41760785  0.18351435  0.63724947     0.01500
C721        C  0.42564467  0.22767451  0.65758926    -0.14600
C722        C  0.47361325  0.25862380  0.67589156    -0.12300
C723        C  0.51528277  0.24697437  0.67434978     0.01000
C724        C  0.50895674  0.20489425  0.65300437    -0.24500
H725        H  0.23797760  0.12070854  0.61024485     0.09000
H726        H  0.32341642  0.18907289  0.63301185     0.12600
H727        H  0.30897509  0.02830437  0.07749224     0.11300
H728        H  0.40243291  0.05981317  0.08648036     0.12500
H729        H  0.48774048  0.12137099  0.61367343     0.11500
H730        H  0.39498756  0.23822944  0.66081294     0.08600
H731        H  0.47730753  0.29081101  0.69228503     0.11900
H732        H  0.54088670  0.19550736  0.65152254     0.13700
loop_ 
_geom_bond_atom_site_label_1 
_geom_bond_atom_site_label_2 
_geom_bond_distance 
_geom_bond_site_symmetry_2 
_ccdc_geom_bond_type 
O1          Cr19   1.975       .  S
O1            C9   1.259       .  A
O2          Cr19   2.006       .  S
O2            C3   1.265       .  A
C3            O4   1.260       .  A
C3          C269   1.480       .  S
O4          Cr20   1.977       .  S
O5          Cr20   2.011       .  S
O5            C6   1.266       .  A
C6            O7   1.260       .  A
C6          C279   1.482       .  S
O7          Cr21   1.973       .  S
O8          Cr21   2.011       .  S
O8            C9   1.265       .  A
C9          C357   1.482       .  S
O10         Cr19   2.006       .  S
O10          C18   1.266       .  A
O11         Cr19   1.966       .  S
O11          C12   1.257       .  A
C12          O13   1.268       .  A
C12         C235   1.465       .  S
O13         Cr20   2.014       .  S
O14         Cr20   1.978       .  S
O14          C15   1.260       .  A
C15          O16   1.267       .  A
C15         C301   1.471       .  S
O16         Cr21   2.008       .  S
O17         Cr21   1.968       .  S
O17          C18   1.257       .  A
C18         C335   1.461       .  S
Cr19         O22   1.774       .  S
Cr20         O22   1.775       .  S
Cr21         O22   1.773       .  S
O23         Cr41   1.984       .  S
O23          C31   1.261       .  A
O24         Cr41   1.998       .  S
O24          C25   1.264       .  A
C25          O26   1.259       .  A
C25         C181   1.467       .  S
O26         Cr42   1.982       .  S
O27         Cr42   2.003       .  S
O27          C28   1.265       .  A
C28          O29   1.261       .  A
C28         C103   1.469       .  S
O29         Cr43   1.981       .  S
O30         Cr43   2.009       .  S
O30          C31   1.269       .  A
C31         C225   1.471       .  S
O32         Cr41   2.002       .  S
O32          C40   1.263       .  A
O33         Cr41   1.983       .  S
O33          C34   1.262       .  A
C34          O35   1.265       .  A
C34         C159   1.476       .  S
O35         Cr42   2.006       .  S
O36         Cr42   1.970       .  S
O36          C37   1.260       .  A
C37          O38   1.265       .  A
C37         C125   1.480       .  S
O38         Cr43   2.014       .  S
O39         Cr43   1.980       .  S
O39          C40   1.261       .  A
C40         C191   1.479       .  S
Cr41         O44   1.771       .  S
Cr42         O44   1.768       .  S
Cr43         O44   1.773       .  S
C45          C89   1.470       .  S
C45          N46   1.368       .  A
C45          N50   1.362       .  A
N46          C47   1.363       .  A
C47         C313   1.476       .  S
C47          N48   1.353       .  A
N48          C49   1.350       .  A
C49         C147   1.464       .  S
C49          N50   1.354       .  A
C51          C98   1.465       .  S
C51          N52   1.365       .  A
C51          N56   1.361       .  A
N52          C53   1.360       .  A
C53         C291   1.476       .  S
C53          N54   1.353       .  A
N54          C55   1.351       .  A
C55         C169   1.459       .  S
C55          N56   1.354       .  A
C57          C92   1.475       .  S
C57          N58   1.368       .  A
C57          N62   1.367   1_565  A
N58          C59   1.361       .  A
C59         C115   1.472       .  S
C59          N60   1.350       .  A
N60          C61   1.350   1_565  A
C61         C345   1.477       .  S
C61          N62   1.359       .  A
C63          C83   1.464       .  S
C63          N64   1.364   1_545  A
C63          N68   1.364       .  A
N64          C65   1.355       .  A
C65         C137   1.473       .  S
C65          N66   1.351   1_565  A
N66          C67   1.352       .  A
C67         C323   1.466       .  S
C67          N68   1.358       .  A
C69          C86   1.472       .  S
C69          N70   1.366   1_655  A
C69          N74   1.370       .  A
N70          C71   1.356       .  A
C71         C203   1.471       .  S
C71          N72   1.346   1_455  A
N72          C73   1.349       .  A
C73         C247   1.475       .  S
C73          N74   1.363       .  A
C75          C95   1.472       .  S
C75          N76   1.364   1_455  A
C75          N80   1.366       .  A
N76          C77   1.356       .  A
C77         C257   1.468       .  S
C77          N78   1.351   1_655  A
N78          C79   1.352       .  A
C79         C213   1.468       .  S
C79          N80   1.361       .  A
O81        Cr465   1.982       .  S
O81          C89   1.260       .  A
O82        Cr465   1.991   1_455  S
O82          C83   1.263   1_565  A
C83          O84   1.261       .  A
O84        Cr466   1.980       .  S
O85        Cr466   2.004       .  S
O85          C86   1.265   1_455  A
C86          O87   1.260       .  A
O87        Cr467   1.981   1_545  S
O88        Cr467   2.000       .  S
O88          C89   1.265       .  A
O90         Cr99   2.000   1_554  S
O90          C98   1.262       .  A
O91         Cr99   1.986   1_454  S
O91          C92   1.262       .  A
C92          O93   1.265   1_565  A
O93        Cr100   2.005   1_554  S
O94        Cr100   1.983   1_554  S
O94          C95   1.261       .  A
C95          O96   1.264   1_455  A
O96        Cr101   2.002   1_544  S
O97        Cr101   1.974   1_554  S
O97          C98   1.260       .  A
Cr99        O447   1.982       .  S
Cr99        O448   1.991   1_655  S
Cr99        O102   1.789       .  S
Cr100       O450   1.980       .  S
Cr100       O451   2.004       .  S
Cr100       O102   1.784   1_445  S
Cr101       O453   1.981   1_565  S
Cr101       O454   2.000       .  S
Cr101       O102   1.782       .  S
C103        C104   1.398       .  A
C103        C108   1.397       .  A
C104        C105   1.398       .  A
C104        H117   1.084       .  S
C105        C106   1.415       .  A
C105        H118   1.078       .  S
C106        C112   1.432       .  A
C106        C107   1.425       .  A
C107        C109   1.398       .  A
C107        C108   1.406       .  A
C108        H119   1.086       .  S
C109        C110   1.388       .  A
C109        H120   1.085       .  S
C110        C111   1.400       .  A
C110        H121   1.084       .  S
C111        C112   1.421       .  A
C111        C116   1.401       .  A
C112        C113   1.420       .  A
C113        C114   1.403       .  A
C113        H122   1.078       .  S
C114        C115   1.397       .  A
C114        H123   1.084       .  S
C115        C116   1.400       .  A
C116        H124   1.085       .  S
C125        C126   1.399       .  A
C125        C130   1.405       .  A
C126        C127   1.391       .  A
C126        H139   1.083       .  S
C127        C128   1.414       .  A
C127        H140   1.077       .  S
C128        C134   1.427       .  A
C128        C129   1.422       .  A
C129        C131   1.401       .  A
C129        C130   1.409       .  A
C130        H141   1.084       .  S
C131        C132   1.394       .  A
C131        H142   1.084       .  S
C132        C133   1.401       .  A
C132        H143   1.084       .  S
C133        C134   1.424       .  A
C133        C138   1.410       .  A
C134        C135   1.412       .  A
C135        C136   1.388       .  A
C135        H144   1.077       .  S
C136        C137   1.398       .  A
C136        H145   1.084       .  S
C137        C138   1.401       .  A
C138        H146   1.085       .  S
C147        C148   1.396       .  A
C147        C152   1.397       .  A
C148        C149   1.393       .  A
C148        H527   1.084       .  S
C149        C150   1.414       .  A
C149        H162   1.074       .  S
C150        C156   1.428       .  A
C150        C151   1.425       .  A
C151        C153   1.399       .  A
C151        C152   1.406       .  A
C152        H163   1.084       .  S
C153        C154   1.390       .  A
C153        H164   1.084       .  S
C154        C155   1.400       .  A
C154        H165   1.084       .  S
C155        C156   1.421       .  A
C155        C160   1.402       .  A
C156        C157   1.417       .  A
C157        C158   1.397       .  A
C157        H166   1.074       .  S
C158        C159   1.398       .  A
C158        H167   1.084       .  S
C159        C160   1.403       .  A
C160        H168   1.084       .  S
H161        C514   1.084       .  S
C169        C170   1.397       .  A
C169        C174   1.393       .  A
C170        C171   1.398       .  A
C170        H549   1.084       .  S
C171        C172   1.416       .  A
C171        H184   1.080       .  S
C172        C178   1.428       .  A
C172        C173   1.425       .  A
C173        C175   1.397       .  A
C173        C174   1.398       .  A
C174        H185   1.086       .  S
C175        C176   1.384       .  A
C175        H186   1.085       .  S
C176        C177   1.398       .  A
C176        H187   1.083       .  S
C177        C178   1.421       .  A
C177        C182   1.395       .  A
C178        C179   1.419       .  A
C179        C180   1.402       .  A
C179        H188   1.079       .  S
C180        C181   1.397       .  A
C180        H189   1.083       .  S
C181        C182   1.398       .  A
C182        H190   1.085       .  S
H183        C536   1.083       .  S
C191        C192   1.399       .  A
C191        C196   1.404       .  A
C192        C193   1.394       .  A
C192        H205   1.083       .  S
C193        C194   1.416       .  A
C193        H206   1.078       .  S
C194        C200   1.427       .  A
C194        C195   1.420       .  A
C195        C197   1.401       .  A
C195        C196   1.404       .  A
C196        H207   1.085       .  S
C197        C198   1.391       .  A
C197        H208   1.084       .  S
C198        C199   1.399       .  A
C198        H209   1.083       .  S
C199        C200   1.425       .  A
C199        C204   1.408       .  A
C200        C201   1.411       .  A
C201        C202   1.389       .  A
C201        H210   1.077       .  S
C202        C203   1.400       .  A
C202        H577   1.084       .  S
C203        C204   1.399       .  A
C204        H212   1.084       .  S
H211        C568   1.084       .  S
C213        C214   1.399       .  A
C213        C218   1.396       .  A
C214        C215   1.401       .  A
C214        H593   1.084       .  S
C215        C216   1.416       .  A
C215        H228   1.080       .  S
C216        C222   1.432       .  A
C216        C217   1.424       .  A
C217        C219   1.398       .  A
C217        C218   1.402       .  A
C218        H229   1.087       .  S
C219        C220   1.386       .  A
C219        H230   1.085       .  S
C220        C221   1.398       .  A
C220        H231   1.085       .  S
C221        C222   1.422       .  A
C221        C226   1.399       .  A
C222        C223   1.419       .  A
C223        C224   1.404       .  A
C223        H232   1.080       .  S
C224        C225   1.398       .  A
C224        H233   1.083       .  S
C225        C226   1.397       .  A
C226        H234   1.087       .  S
H227        C580   1.084       .  S
C235        C236   1.398       .  A
C235        C240   1.394       .  A
C236        C237   1.397       .  A
C236        H249   1.084       .  S
C237        C238   1.414       .  A
C237        H250   1.079       .  S
C238        C244   1.431       .  A
C238        C239   1.426       .  A
C239        C241   1.397       .  A
C239        C240   1.403       .  A
C240        H251   1.086       .  S
C241        C242   1.387       .  A
C241        H252   1.085       .  S
C242        C243   1.400       .  A
C242        H619   1.084       .  S
C243        C244   1.420       .  A
C243        C248   1.397       .  A
C244        C245   1.420       .  A
C245        C246   1.404       .  A
C245        H254   1.078       .  S
C246        C247   1.398       .  A
C246        H255   1.083       .  S
C247        C248   1.402       .  A
C248        H622   1.086       .  S
H253        C608   1.084       .  S
H256        C614   1.086       .  S
C257        C258   1.397       .  A
C257        C262   1.398       .  A
C258        C259   1.393       .  A
C258        H637   1.084       .  S
C259        C260   1.414       .  A
C259        H272   1.077       .  S
C260        C266   1.428       .  A
C260        C261   1.425       .  A
C261        C263   1.399       .  A
C261        C262   1.407       .  A
C262        H273   1.084       .  S
C263        C264   1.391       .  A
C263        H274   1.084       .  S
C264        C265   1.400       .  A
C264        H275   1.084       .  S
C265        C266   1.421       .  A
C265        C270   1.405       .  A
C266        C267   1.415       .  A
C267        C268   1.395       .  A
C267        H276   1.077       .  S
C268        C269   1.400       .  A
C268        H277   1.083       .  S
C269        C270   1.404       .  A
C270        H278   1.084       .  S
H271        C624   1.084       .  S
C279        C280   1.402       .  A
C279        C284   1.401       .  A
C280        C281   1.398       .  A
C280        H293   1.083       .  S
C281        C282   1.415       .  A
C281        H294   1.077       .  S
C282        C288   1.431       .  A
C282        C283   1.423       .  A
C283        C285   1.398       .  A
C283        C284   1.403       .  A
C284        H295   1.084       .  S
C285        C286   1.387       .  A
C285        H296   1.084       .  S
C286        C287   1.399       .  A
C286        H297   1.084       .  S
C287        C288   1.421       .  A
C287        C292   1.400       .  A
C288        C289   1.418       .  A
C289        C290   1.401       .  A
C289        H298   1.078       .  S
C290        C291   1.398       .  A
C290        H299   1.083       .  S
C291        C292   1.401       .  A
C292        H666   1.085       .  S
H300        C658   1.085       .  S
C301        C302   1.399       .  A
C301        C306   1.396       .  A
C302        C303   1.401       .  A
C302        H315   1.084       .  S
C303        C304   1.416       .  A
C303        H316   1.078       .  S
C304        C310   1.433       .  A
C304        C305   1.425       .  A
C305        C307   1.398       .  A
C305        C306   1.403       .  A
C306        H317   1.086       .  S
C307        C308   1.387       .  A
C307        H318   1.085       .  S
C308        C309   1.399       .  A
C308        H319   1.084       .  S
C309        C310   1.421       .  A
C309        C314   1.400       .  A
C310        C311   1.420       .  A
C311        C312   1.405       .  A
C311        H320   1.078       .  S
C312        C313   1.398       .  A
C312        H321   1.083       .  S
C313        C314   1.400       .  A
C314        H322   1.085       .  S
C323        C324   1.398       .  A
C323        C328   1.397       .  A
C324        C325   1.391       .  A
C324        H337   1.084       .  S
C325        C326   1.412       .  A
C325        H338   1.078       .  S
C326        C332   1.426       .  A
C326        C327   1.424       .  A
C327        C329   1.399       .  A
C327        C328   1.407       .  A
C328        H339   1.085       .  S
C329        C330   1.391       .  A
C329        H340   1.084       .  S
C330        C331   1.400       .  A
C330        H341   1.083       .  S
C331        C332   1.422       .  A
C331        C336   1.403       .  A
C332        C333   1.417       .  A
C333        C334   1.395       .  A
C333        H342   1.077       .  S
C334        C335   1.394       .  A
C334        H343   1.084       .  S
C335        C336   1.398       .  A
C336        H344   1.085       .  S
C345        C346   1.399       .  A
C345        C350   1.401       .  A
C346        C347   1.403       .  A
C346        H359   1.083       .  S
C347        C348   1.419       .  A
C347        H360   1.078       .  S
C348        C354   1.432       .  A
C348        C349   1.421       .  A
C349        C351   1.398       .  A
C349        C350   1.398       .  A
C350        H727   1.086       .  S
C351        C352   1.386       .  A
C351        H728   1.085       .  S
C352        C353   1.398       .  A
C352        H363   1.084       .  S
C353        C354   1.424       .  A
C353        C358   1.403       .  A
C354        C355   1.414       .  A
C355        C356   1.399       .  A
C355        H364   1.077       .  S
C356        C357   1.403       .  A
C356        H365   1.083       .  S
C357        C358   1.401       .  A
C358        H366   1.084       .  S
H361        C716   1.086       .  S
H362        C717   1.085       .  S
O367       Cr385   1.975       .  S
O367        C375   1.259       .  A
O368       Cr385   2.006       .  S
O368        C369   1.265       .  A
C369        O370   1.260       .  A
C369        C635   1.480       .  S
O370       Cr386   1.977       .  S
O371       Cr386   2.011       .  S
O371        C372   1.266       .  A
C372        O373   1.260       .  A
C372        C645   1.482       .  S
O373       Cr387   1.973       .  S
O374       Cr387   2.011       .  S
O374        C375   1.265       .  A
C375        C723   1.482       .  S
O376       Cr385   2.006       .  S
O376        C384   1.266       .  A
O377       Cr385   1.966       .  S
O377        C378   1.257       .  A
C378        O379   1.268       .  A
C378        C601   1.465       .  S
O379       Cr386   2.014       .  S
O380       Cr386   1.978       .  S
O380        C381   1.260       .  A
C381        O382   1.267       .  A
C381        C667   1.471       .  S
O382       Cr387   2.008       .  S
O383       Cr387   1.968       .  S
O383        C384   1.257       .  A
C384        C701   1.461       .  S
Cr385       O388   1.774       .  S
Cr386       O388   1.775       .  S
Cr387       O388   1.773       .  S
O389       Cr407   1.984       .  S
O389        C397   1.261       .  A
O390       Cr407   1.998       .  S
O390        C391   1.264       .  A
C391        O392   1.259       .  A
C391        C547   1.467       .  S
O392       Cr408   1.982       .  S
O393       Cr408   2.003       .  S
O393        C394   1.265       .  A
C394        O395   1.261       .  A
C394        C469   1.469       .  S
O395       Cr409   1.981       .  S
O396       Cr409   2.009       .  S
O396        C397   1.269       .  A
C397        C591   1.471       .  S
O398       Cr407   2.002       .  S
O398        C406   1.263       .  A
O399       Cr407   1.983       .  S
O399        C400   1.262       .  A
C400        O401   1.265       .  A
C400        C525   1.476       .  S
O401       Cr408   2.006       .  S
O402       Cr408   1.970       .  S
O402        C403   1.260       .  A
C403        O404   1.265       .  A
C403        C491   1.480       .  S
O404       Cr409   2.014       .  S
O405       Cr409   1.980       .  S
O405        C406   1.261       .  A
C406        C557   1.479       .  S
Cr407       O410   1.771       .  S
Cr408       O410   1.768       .  S
Cr409       O410   1.773       .  S
C411        C455   1.470       .  S
C411        N412   1.368       .  A
C411        N416   1.362       .  A
N412        C413   1.363       .  A
C413        C679   1.476       .  S
C413        N414   1.353       .  A
N414        C415   1.350       .  A
C415        C513   1.464       .  S
C415        N416   1.354       .  A
C417        C464   1.465       .  S
C417        N418   1.365       .  A
C417        N422   1.361       .  A
N418        C419   1.360       .  A
C419        C657   1.476       .  S
C419        N420   1.353       .  A
N420        C421   1.351       .  A
C421        C535   1.459       .  S
C421        N422   1.354       .  A
C423        C458   1.475       .  S
C423        N424   1.368       .  A
C423        N428   1.367   1_565  A
N424        C425   1.361       .  A
C425        C481   1.472       .  S
C425        N426   1.350       .  A
N426        C427   1.350   1_565  A
C427        C711   1.477       .  S
C427        N428   1.359       .  A
C429        C449   1.464       .  S
C429        N430   1.364   1_545  A
C429        N434   1.364       .  A
N430        C431   1.355       .  A
C431        C503   1.473       .  S
C431        N432   1.351   1_565  A
N432        C433   1.352       .  A
C433        C689   1.466       .  S
C433        N434   1.358       .  A
C435        C452   1.472       .  S
C435        N436   1.366   1_655  A
C435        N440   1.370       .  A
N436        C437   1.356       .  A
C437        C569   1.471       .  S
C437        N438   1.346   1_455  A
N438        C439   1.349       .  A
C439        C613   1.475       .  S
C439        N440   1.363       .  A
C441        C461   1.472       .  S
C441        N442   1.364   1_455  A
C441        N446   1.366       .  A
N442        C443   1.356       .  A
C443        C623   1.468       .  S
C443        N444   1.351   1_655  A
N444        C445   1.352       .  A
C445        C579   1.468       .  S
C445        N446   1.361       .  A
O447        C455   1.260       .  A
O448        C449   1.263   1_565  A
C449        O450   1.261       .  A
O451        C452   1.265   1_455  A
C452        O453   1.260       .  A
O454        C455   1.265       .  A
O456       Cr465   2.000       .  S
O456        C464   1.262       .  A
O457       Cr465   1.986   1_455  S
O457        C458   1.262       .  A
C458        O459   1.265   1_565  A
O459       Cr466   2.005       .  S
O460       Cr466   1.983       .  S
O460        C461   1.261       .  A
C461        O462   1.264   1_455  A
O462       Cr467   2.002   1_545  S
O463       Cr467   1.974       .  S
O463        C464   1.260       .  A
Cr465       O468   1.789       .  S
Cr466       O468   1.784   1_445  S
Cr467       O468   1.782       .  S
C469        C470   1.398       .  A
C469        C474   1.397       .  A
C470        C471   1.398       .  A
C470        H483   1.084       .  S
C471        C472   1.415       .  A
C471        H484   1.078       .  S
C472        C478   1.432       .  A
C472        C473   1.425       .  A
C473        C475   1.398       .  A
C473        C474   1.406       .  A
C474        H485   1.086       .  S
C475        C476   1.388       .  A
C475        H486   1.085       .  S
C476        C477   1.400       .  A
C476        H487   1.084       .  S
C477        C478   1.421       .  A
C477        C482   1.401       .  A
C478        C479   1.420       .  A
C479        C480   1.403       .  A
C479        H488   1.078       .  S
C480        C481   1.397       .  A
C480        H489   1.083       .  S
C481        C482   1.400       .  A
C482        H490   1.085       .  S
C491        C492   1.399       .  A
C491        C496   1.405       .  A
C492        C493   1.391       .  A
C492        H505   1.083       .  S
C493        C494   1.414       .  A
C493        H506   1.077       .  S
C494        C500   1.427       .  A
C494        C495   1.422       .  A
C495        C497   1.401       .  A
C495        C496   1.409       .  A
C496        H507   1.084       .  S
C497        C498   1.394       .  A
C497        H508   1.084       .  S
C498        C499   1.401       .  A
C498        H509   1.084       .  S
C499        C500   1.424       .  A
C499        C504   1.410       .  A
C500        C501   1.412       .  A
C501        C502   1.388       .  A
C501        H510   1.077       .  S
C502        C503   1.398       .  A
C502        H511   1.084       .  S
C503        C504   1.401       .  A
C504        H512   1.085       .  S
C513        C514   1.396       .  A
C513        C518   1.397       .  A
C514        C515   1.393       .  A
C515        C516   1.414       .  A
C515        H528   1.074       .  S
C516        C522   1.428       .  A
C516        C517   1.425       .  A
C517        C519   1.399       .  A
C517        C518   1.406       .  A
C518        H529   1.084       .  S
C519        C520   1.390       .  A
C519        H530   1.084       .  S
C520        C521   1.400       .  A
C520        H531   1.084       .  S
C521        C522   1.421       .  A
C521        C526   1.402       .  A
C522        C523   1.417       .  A
C523        C524   1.397       .  A
C523        H532   1.074       .  S
C524        C525   1.398       .  A
C524        H533   1.084       .  S
C525        C526   1.403       .  A
C526        H534   1.083       .  S
C535        C536   1.397       .  A
C535        C540   1.393       .  A
C536        C537   1.398       .  A
C537        C538   1.416       .  A
C537        H550   1.080       .  S
C538        C544   1.428       .  A
C538        C539   1.425       .  A
C539        C541   1.397       .  A
C539        C540   1.398       .  A
C540        H551   1.086       .  S
C541        C542   1.384       .  A
C541        H552   1.085       .  S
C542        C543   1.398       .  A
C542        H553   1.083       .  S
C543        C544   1.421       .  A
C543        C548   1.395       .  A
C544        C545   1.419       .  A
C545        C546   1.402       .  A
C545        H554   1.079       .  S
C546        C547   1.397       .  A
C546        H555   1.083       .  S
C547        C548   1.398       .  A
C548        H556   1.085       .  S
C557        C558   1.399       .  A
C557        C562   1.404       .  A
C558        C559   1.394       .  A
C558        H571   1.083       .  S
C559        C560   1.416       .  A
C559        H572   1.078       .  S
C560        C566   1.427       .  A
C560        C561   1.420       .  A
C561        C563   1.401       .  A
C561        C562   1.404       .  A
C562        H573   1.085       .  S
C563        C564   1.391       .  A
C563        H574   1.084       .  S
C564        C565   1.399       .  A
C564        H575   1.083       .  S
C565        C566   1.425       .  A
C565        C570   1.408       .  A
C566        C567   1.411       .  A
C567        C568   1.389       .  A
C567        H576   1.077       .  S
C568        C569   1.400       .  A
C569        C570   1.399       .  A
C570        H578   1.084       .  S
C579        C580   1.399       .  A
C579        C584   1.396       .  A
C580        C581   1.401       .  A
C581        C582   1.416       .  A
C581        H594   1.080       .  S
C582        C588   1.432       .  A
C582        C583   1.424       .  A
C583        C585   1.398       .  A
C583        C584   1.402       .  A
C584        H595   1.086       .  S
C585        C586   1.386       .  A
C585        H596   1.085       .  S
C586        C587   1.398       .  A
C586        H597   1.085       .  S
C587        C588   1.422       .  A
C587        C592   1.399       .  A
C588        C589   1.419       .  A
C589        C590   1.404       .  A
C589        H598   1.080       .  S
C590        C591   1.398       .  A
C590        H599   1.083       .  S
C591        C592   1.397       .  A
C592        H600   1.087       .  S
C601        C602   1.398       .  A
C601        C606   1.394       .  A
C602        C603   1.397       .  A
C602        H615   1.084       .  S
C603        C604   1.414       .  A
C603        H616   1.079       .  S
C604        C610   1.431       .  A
C604        C605   1.426       .  A
C605        C607   1.397       .  A
C605        C606   1.403       .  A
C606        H617   1.086       .  S
C607        C608   1.387       .  A
C607        H618   1.085       .  S
C608        C609   1.400       .  A
C609        C610   1.420       .  A
C609        C614   1.397       .  A
C610        C611   1.420       .  A
C611        C612   1.404       .  A
C611        H620   1.078       .  S
C612        C613   1.398       .  A
C612        H621   1.083       .  S
C613        C614   1.402       .  A
C623        C624   1.397       .  A
C623        C628   1.398       .  A
C624        C625   1.393       .  A
C625        C626   1.414       .  A
C625        H638   1.077       .  S
C626        C632   1.428       .  A
C626        C627   1.425       .  A
C627        C629   1.399       .  A
C627        C628   1.407       .  A
C628        H639   1.084       .  S
C629        C630   1.391       .  A
C629        H640   1.084       .  S
C630        C631   1.400       .  A
C630        H641   1.084       .  S
C631        C632   1.421       .  A
C631        C636   1.405       .  A
C632        C633   1.415       .  A
C633        C634   1.395       .  A
C633        H642   1.077       .  S
C634        C635   1.400       .  A
C634        H643   1.083       .  S
C635        C636   1.404       .  A
C636        H644   1.084       .  S
C645        C646   1.402       .  A
C645        C650   1.401       .  A
C646        C647   1.398       .  A
C646        H659   1.083       .  S
C647        C648   1.415       .  A
C647        H660   1.077       .  S
C648        C654   1.431       .  A
C648        C649   1.423       .  A
C649        C651   1.398       .  A
C649        C650   1.403       .  A
C650        H661   1.084       .  S
C651        C652   1.387       .  A
C651        H662   1.084       .  S
C652        C653   1.399       .  A
C652        H663   1.084       .  S
C653        C654   1.421       .  A
C653        C658   1.400       .  A
C654        C655   1.418       .  A
C655        C656   1.401       .  A
C655        H664   1.078       .  S
C656        C657   1.398       .  A
C656        H665   1.083       .  S
C657        C658   1.401       .  A
C667        C668   1.399       .  A
C667        C672   1.396       .  A
C668        C669   1.401       .  A
C668        H681   1.084       .  S
C669        C670   1.416       .  A
C669        H682   1.078       .  S
C670        C676   1.433       .  A
C670        C671   1.425       .  A
C671        C673   1.398       .  A
C671        C672   1.403       .  A
C672        H683   1.086       .  S
C673        C674   1.387       .  A
C673        H684   1.085       .  S
C674        C675   1.399       .  A
C674        H685   1.084       .  S
C675        C676   1.421       .  A
C675        C680   1.400       .  A
C676        C677   1.420       .  A
C677        C678   1.405       .  A
C677        H686   1.078       .  S
C678        C679   1.398       .  A
C678        H687   1.083       .  S
C679        C680   1.400       .  A
C680        H688   1.085       .  S
C689        C690   1.398       .  A
C689        C694   1.397       .  A
C690        C691   1.391       .  A
C690        H703   1.084       .  S
C691        C692   1.412       .  A
C691        H704   1.078       .  S
C692        C698   1.426       .  A
C692        C693   1.424       .  A
C693        C695   1.399       .  A
C693        C694   1.407       .  A
C694        H705   1.085       .  S
C695        C696   1.391       .  A
C695        H706   1.084       .  S
C696        C697   1.400       .  A
C696        H707   1.083       .  S
C697        C698   1.422       .  A
C697        C702   1.403       .  A
C698        C699   1.417       .  A
C699        C700   1.395       .  A
C699        H708   1.077       .  S
C700        C701   1.394       .  A
C700        H709   1.084       .  S
C701        C702   1.398       .  A
C702        H710   1.085       .  S
C711        C712   1.399       .  A
C711        C716   1.401       .  A
C712        C713   1.403       .  A
C712        H725   1.083       .  S
C713        C714   1.419       .  A
C713        H726   1.078       .  S
C714        C720   1.432       .  A
C714        C715   1.421       .  A
C715        C717   1.398       .  A
C715        C716   1.398       .  A
C717        C718   1.387       .  A
C718        C719   1.398       .  A
C718        H729   1.084       .  S
C719        C720   1.424       .  A
C719        C724   1.403       .  A
C720        C721   1.414       .  A
C721        C722   1.399       .  A
C721        H730   1.077       .  S
C722        C723   1.403       .  A
C722        H731   1.083       .  S
C723        C724   1.401       .  A
C724        H732   1.084       .  S
