geometry optimzed in LAMMPS
_audit_creation_date              2020-11-30 
_audit_creation_method            'lammps2cif' 
_symmetry_space_group_name_H-M    'P1' 
_symmetry_Int_Tables_number       1 
_symmetry_cell_setting            triclinic 
loop_ 
_symmetry_equiv_pos_as_xyz 
  x,y,z 
_cell_length_a                    40.4861303473368 
_cell_length_b                    40.50461435005476 
_cell_length_c                    33.67092387910214 
_cell_angle_alpha                 89.86938718269309 
_cell_angle_beta                  90.17913324991365 
_cell_angle_gamma                 119.94007010063369 
loop_ 
_atom_site_label 
_atom_site_type_symbol 
_atom_site_fract_x 
_atom_site_fract_y 
_atom_site_fract_z 
_atom_site_charge 
O1          O  0.24203900  0.17215516  0.45345935    -0.84140
C2          C  0.43532356  0.28108480  0.06007132     1.15900
O3          O  0.29835587  0.15431231  0.99838578    -1.31950
O4          O  0.40621647  0.28415410  0.45437497    -0.85620
O5          O  0.22133627  0.10947354  0.45353005    -0.86290
O6          O  0.30647604  0.12120904  0.41455084    -0.75110
O7          O  0.32354463  0.22982566  0.46138565    -0.97200
C8          C  0.41653219  0.18150104  0.42521551     1.25950
O9          O  0.35046407  0.12961821  0.49724583    -1.32090
Mn10       Mn  0.34152919  0.16283322  0.04152550     1.82060
O11         O  0.38394403  0.17420517  0.41463845    -0.74180
O12         O  0.44873858  0.26415135  0.45490078    -0.83580
C13         C  0.41650077  0.17713539  0.07274195     1.17030
C14         C  0.43530769  0.28399684  0.44057194     1.11760
O15         O  0.30722953  0.11957372  0.08133938    -0.75120
O16         O  0.37531602  0.20742903  0.49833884    -1.28820
O17         O  0.27604147  0.08046822  0.03528925    -0.94330
C18         C  0.36591345  0.07104404  0.43666315     1.10470
Mn19       Mn  0.43394464  0.22270801  0.49885194     1.48570
O20         O  0.33298259  0.05697764  0.45181863    -0.83530
Mn21       Mn  0.25055051  0.09775146  0.99807750     1.49560
O22         O  0.24282428  0.17180866  0.04372352    -0.87410
C23         C  0.32558031  0.22483503  0.42601414     1.23660
C24         C  0.22306423  0.13851371  0.05808778     1.15720
Mn25       Mn  0.34082376  0.16423532  0.45517193     1.80970
O26         O  0.42432287  0.17953154  0.03755898    -0.92560
Mn27       Mn  0.28233213  0.19792643  0.49866205     1.49260
C28         C  0.22211758  0.13889364  0.43925453     1.12240
Mn29       Mn  0.40731344  0.13744830  0.99943780     1.49930
C30         C  0.36575865  0.06844733  0.05821344     1.15150
O31         O  0.27551445  0.08097234  0.45995505    -0.98360
O32         O  0.44881021  0.26118956  0.04605829    -0.88030
C33         C  0.28077847  0.08861865  0.42466999     1.26430
O34         O  0.42357425  0.18258472  0.46041054    -0.98750
O35         O  0.40694186  0.28206470  0.04525401    -0.86150
O36         O  0.39524119  0.09698496  0.04410882    -0.85760
O37         O  0.22239401  0.10923826  0.04363816    -0.85780
Mn38       Mn  0.36743360  0.25433565  0.99944088     1.47860
O39         O  0.38414988  0.17106255  0.08252355    -0.74250
C40         C  0.28153355  0.08736283  0.07056600     1.19480
O41         O  0.33159328  0.19872890  0.41535464    -0.72990
O42         O  0.33221787  0.19650487  0.08184772    -0.72600
Mn43       Mn  0.30720780  0.07097746  0.49707987     1.51060
O44         O  0.39526859  0.10034264  0.44996088    -0.84950
O45         O  0.32446698  0.22838379  0.03624524    -0.92480
O46         O  0.33252624  0.05535864  0.04373986    -0.87490
C47         C  0.32561209  0.22229785  0.07143978     1.17270
C48         C  0.35970061  0.47976517  0.15702529     0.04610
C49         C  0.37403430  0.01600367  0.15905740     0.04600
C50         C  0.18350706  0.47899268  0.15009389     0.04610
C51         C  0.20187995  0.01654428  0.14780808     0.04600
C52         C  0.36250320  0.47501196  0.34930939     0.04610
C53         C  0.37526991  0.01436510  0.34126113     0.04600
C54         C  0.18009229  0.47509134  0.35287890     0.04610
C55         C  0.19951566  0.01393803  0.34847501     0.04600
C56         C  0.33425458  0.30144441  0.14888738     0.04610
C57         C  0.31514311  0.32090422  0.15097904     0.04600
C58         C  0.16360081  0.13126441  0.15966132     0.04610
C59         C  0.14347473  0.14979458  0.15953056     0.04600
C60         C  0.31623860  0.32696396  0.35183399     0.04610
C61         C  0.33583724  0.30777653  0.35016526     0.04600
C62         C  0.16454943  0.13422368  0.33751075     0.04610
C63         C  0.14509983  0.15346851  0.33752411     0.04600
C64         C  0.33301883  0.39689693  0.22843829     0.04610
C65         C  0.34110966  0.40205223  0.26788481     0.04600
C66         C  0.02482264  0.18429289  0.14908369     0.04610
C67         C  0.48918486  0.16672998  0.14876290     0.04600
C68         C  0.02641912  0.35892396  0.16100077     0.04570
C69         C  0.98776824  0.34075127  0.16071947     0.04600
C70         C  0.02870010  0.36448360  0.34117307     0.04610
C71         C  0.99012845  0.34404013  0.34041477     0.04600
C72         C  0.48735487  0.16985869  0.35114442     0.04610
C73         C  0.02886976  0.19241849  0.34867990     0.04600
C74         C  0.11015487  0.41757856  0.26825805     0.04610
C75         C  0.11306908  0.41510481  0.22832367     0.04600
C76         C  0.09361590  0.18548464  0.22745305     0.04610
C77         C  0.09126829  0.18488054  0.26775387     0.04600
C78         C  0.42526017  0.09903665  0.22923515     0.04610
C79         C  0.42883500  0.09780994  0.26926314     0.04600
C80         C  0.40488691  0.31262234  0.23156060     0.04610
C81         C  0.40481884  0.31022471  0.27184584     0.04600
C82         C  0.19580368  0.07881435  0.23022512     0.04610
C83         C  0.19865986  0.08190603  0.27045438     0.04600
O84         O  0.18119832  0.22834785  0.04550866    -0.84140
C85         C  0.29529373  0.42301922  0.44611086     1.15900
O86         O  0.16478352  0.28495415  0.50130857    -1.31950
O87         O  0.29213884  0.39232182  0.05012192    -0.85620
O88         O  0.11856625  0.20779472  0.04414344    -0.86290
O89         O  0.12916991  0.29287614  0.08385995    -0.75110
O90         O  0.23834896  0.30992283  0.04060127    -0.97200
C91         C  0.18909097  0.40338895  0.07531269     1.25950
O92         O  0.13982196  0.33779311  0.50142329    -1.32090
Mn93       Mn  0.17491166  0.32928085  0.45923679     1.82060
O94         O  0.18176297  0.37065366  0.08552357    -0.74180
O95         O  0.27284780  0.43544400  0.04812074    -0.83580
C96         C  0.19108737  0.40521481  0.43017625     1.17030
C97         C  0.29209476  0.42167780  0.06313734     1.11760
O98         O  0.13256905  0.29633298  0.41788913    -0.75120
O99         O  0.21766672  0.36268849  0.50296340    -1.28820
O100        O  0.09184561  0.26416602  0.46236545    -0.94330
C101        C  0.07955736  0.35270633  0.06019039     1.10470
Mn102      Mn  0.23286036  0.42130294  0.00307750     1.48570
O103        O  0.06622050  0.31965361  0.04538554    -0.83530
Mn104      Mn  0.10801521  0.23745607  0.49948142     1.49560
O105        O  0.18300038  0.23032536  0.45513149    -0.87410
C106        C  0.23234981  0.31131568  0.07580234     1.23660
C107        C  0.15001063  0.21102856  0.43984166     1.15720
Mn108      Mn  0.17319171  0.32780367  0.04470608     1.80970
O109        O  0.19226533  0.41173124  0.46545609    -0.92560
Mn110      Mn  0.20820076  0.26972070  0.00178132     1.49260
C111        C  0.14766990  0.20815957  0.05883435     1.12240
Mn112      Mn  0.14919131  0.39456300  0.50201113     1.49930
C113        C  0.08131896  0.35498026  0.44131483     1.15150
O114        O  0.09027753  0.26211129  0.03728025    -0.98360
O115        O  0.27439201  0.43598833  0.45865197    -0.88030
C116        C  0.09711423  0.26684460  0.07276407     1.26430
O117        O  0.19129565  0.41093015  0.04006300    -0.98750
O118        O  0.29513170  0.39402565  0.46063582    -0.86150
O119        O  0.10997736  0.38392108  0.45616100    -0.85760
O120        O  0.12046070  0.21024575  0.45367395    -0.85780
Mn121      Mn  0.26501480  0.35313029  0.50413335     1.47860
O122        O  0.18479537  0.37308994  0.41927287    -0.74250
C123        C  0.09985083  0.27069383  0.42733805     1.19480
O124        O  0.20644949  0.31792852  0.08572788    -0.72990
O125        O  0.20965222  0.32086287  0.41954888    -0.72600
Mn126      Mn  0.08113486  0.29432590  0.00007883     1.51060
O127        O  0.10848590  0.38223622  0.04661941    -0.84950
O128        O  0.24022588  0.31157657  0.46553016    -0.92480
O129        O  0.06751786  0.32145958  0.45514390    -0.87490
C130        C  0.23539247  0.31424759  0.43025512     1.17270
C131        C  0.06128127  0.18986187  0.28826581    -0.12390
C132        C  0.05171807  0.17962639  0.32628881    -0.27570
H133        H  0.04768560  0.20353307  0.27288791     0.16630
H134        H  0.06470208  0.16607501  0.34299969     0.17210
C135        C  0.46013157  0.13136655  0.29071232    -0.12390
C136        C  0.46306730  0.13335178  0.33042090    -0.27570
H137        H  0.47993660  0.15644292  0.27406621     0.16630
H138        H  0.44286372  0.10973209  0.34857545     0.17210
C139        C  0.05060698  0.22409475  0.37494158    -0.09230
C140        C  0.07260590  0.24752027  0.39789845    -0.10790
C141        C  0.05118431  0.38958552  0.30784310    -0.12390
C142        C  0.07889911  0.38577651  0.29067056    -0.27570
H143        H  0.04737130  0.41351758  0.30008368     0.16630
H144        H  0.08247076  0.36166333  0.29836357     0.17210
C145        C  0.46738405  0.34294069  0.30512835    -0.12390
C146        C  0.43594304  0.31037157  0.29500886    -0.27570
H147        H  0.47455282  0.36923147  0.28963200     0.16630
H148        H  0.42874454  0.28448872  0.31139702     0.17210
C149        C  0.04932885  0.36322778  0.37617089    -0.09230
C150        C  0.06411440  0.36023960  0.40617323    -0.10790
C151        C  0.04949383  0.38068628  0.19623119    -0.12390
C152        C  0.08370748  0.38411073  0.20345389    -0.27570
H153        H  0.03991894  0.39637094  0.21444669     0.16630
H154        H  0.09360889  0.36912543  0.18453444     0.17210
C155        C  0.46625852  0.34215171  0.19544850    -0.12390
C156        C  0.43461896  0.31075734  0.20750936    -0.27570
H157        H  0.47405091  0.36945134  0.20885816     0.16630
H158        H  0.42658444  0.28361922  0.19349537     0.17210
C159        C  0.04645921  0.35825959  0.12535908    -0.09230
C160        C  0.06155736  0.35655857  0.09517834    -0.10790
C161        C  0.04705058  0.17240791  0.17398477    -0.12390
C162        C  0.06951331  0.19539395  0.20283643    -0.27570
H163        H  0.04415865  0.14451919  0.16946892     0.16630
H164        H  0.07055837  0.22234797  0.20830513     0.17210
C165        C  0.46884309  0.13288580  0.17421920    -0.12390
C166        C  0.44950110  0.13381240  0.20592842    -0.27570
H167        H  0.46957473  0.10717173  0.16673441     0.16630
H168        H  0.45053750  0.16024222  0.21422671     0.17210
C169        C  0.06949027  0.24106256  0.10084136    -0.09230
C170        C  0.04742053  0.21636922  0.12292588    -0.10790
C171        C  0.12347192  0.15446691  0.30207366    -0.12390
C172        C  0.12158026  0.18580233  0.29340337    -0.27570
H173        H  0.10681604  0.12869212  0.28484640     0.16630
H174        H  0.13761587  0.21122687  0.31137862     0.17210
C175        C  0.16622254  0.11289398  0.30225443    -0.12390
C176        C  0.19863095  0.11316720  0.29314277    -0.27570
H177        H  0.14006984  0.09391119  0.28650723     0.16630
H178        H  0.22428659  0.13141315  0.31008188     0.17210
C179        C  0.14471429  0.17350651  0.37349243    -0.09230
C180        C  0.14622276  0.18984587  0.40409377    -0.10790
C181        C  0.32484631  0.36169241  0.32841440    -0.12390
C182        C  0.33990525  0.37016278  0.29172730    -0.27570
H183        H  0.31393569  0.37917042  0.34070127     0.16630
H184        H  0.34726169  0.35114456  0.27681839     0.17210
C185        C  0.37001020  0.29975454  0.29507214    -0.12390
C186        C  0.37033551  0.32072044  0.32588923    -0.27570
H187        H  0.34375771  0.27402063  0.28704374     0.16630
H188        H  0.39578680  0.34751871  0.33307427     0.17210
C189        C  0.28520654  0.31573697  0.37946409    -0.09230
C190        C  0.26076092  0.31241011  0.40205379    -0.10790
C191        C  0.12220871  0.15129066  0.19480173    -0.12390
C192        C  0.12462097  0.18433268  0.20551110    -0.27570
H193        H  0.10154492  0.12484843  0.20895036     0.16630
H194        H  0.14465410  0.21029956  0.19009431     0.17210
C195        C  0.19645149  0.10936890  0.20523050    -0.12390
C196        C  0.16450145  0.10951189  0.19498362    -0.27570
H197        H  0.22254490  0.12712391  0.18882322     0.16630
H198        H  0.13818040  0.09131022  0.21077304     0.17210
C199        C  0.14206966  0.16917974  0.12370997    -0.09230
C200        C  0.14296833  0.18565936  0.09352204    -0.10790
C201        C  0.33127198  0.35744143  0.17218116    -0.12390
C202        C  0.32032240  0.35945879  0.20911506    -0.27570
H203        H  0.35070891  0.38319829  0.15611243     0.16630
H204        H  0.30124148  0.33333948  0.22489167     0.17210
C205        C  0.37035598  0.31310132  0.17025229    -0.12390
C206        C  0.37134752  0.31031679  0.20990429    -0.27570
H207        H  0.39460483  0.31786590  0.15236783     0.16630
H208        H  0.34579838  0.30410930  0.22618791     0.17210
C209        C  0.25720937  0.30889718  0.10472628    -0.09230
C210        C  0.28211589  0.31141762  0.12647487    -0.10790
C211        C  0.18614461  0.03380953  0.32170362    -0.12390
C212        C  0.20947192  0.05805083  0.29419565    -0.27570
H213        H  0.15718624  0.02858935  0.32459347     0.16630
H214        H  0.23772437  0.06169522  0.28998968     0.17210
C215        C  0.14463383  0.44919759  0.33089192    -0.12390
C216        C  0.14187478  0.44955592  0.29115597    -0.27570
H217        H  0.12288204  0.42541072  0.34767213     0.16630
H218        H  0.16522874  0.47255967  0.27509679     0.17210
C219        C  0.19159076  0.45549974  0.38056345    -0.09230
C220        C  0.19424988  0.43337629  0.40237793    -0.10790
C221        C  0.39774861  0.06731500  0.29333226    -0.12390
C222        C  0.39802102  0.03579372  0.30574204    -0.27570
H223        H  0.37812987  0.07486820  0.30698330     0.16630
H224        H  0.41735623  0.02784362  0.29217504     0.17210
C225        C  0.34678741  0.43722641  0.28833089    -0.12390
C226        C  0.36807571  0.45033351  0.32131115    -0.27570
H227        H  0.33060449  0.45048849  0.27822926     0.16630
H228        H  0.38383623  0.43689184  0.33207458     0.17210
C229        C  0.34003633  0.45638282  0.38443446    -0.09230
C230        C  0.32011715  0.44162774  0.41305414    -0.10790
C231        C  0.19045507  0.04044711  0.17035741    -0.12390
C232        C  0.19880133  0.04784534  0.20911292    -0.27570
H233        H  0.18027195  0.05631518  0.15322189     0.16630
H234        H  0.20963327  0.03171329  0.22477328     0.17210
C235        C  0.14895656  0.44060139  0.20731269    -0.12390
C236        C  0.14896421  0.45915206  0.17448569    -0.27570
H237        H  0.17541815  0.44301322  0.21810145     0.16630
H238        H  0.12293189  0.45796944  0.16411668     0.17210
C239        C  0.19165374  0.45470056  0.12529785    -0.09230
C240        C  0.19256345  0.43129510  0.10387104    -0.10790
C241        C  0.33059936  0.42556230  0.20312401    -0.12390
C242        C  0.36117974  0.45894121  0.19294794    -0.27570
H243        H  0.30412269  0.41532388  0.18668022     0.16630
H244        H  0.38790231  0.46908684  0.20887405     0.17210
C245        C  0.39680848  0.03875010  0.19345499    -0.12390
C246        C  0.39391088  0.06833863  0.20642396    -0.27570
H247        H  0.41833328  0.03318626  0.20597846     0.16630
H248        H  0.37325332  0.07456938  0.19278759     0.17210
C249        C  0.33419489  0.45760344  0.12509984    -0.09230
C250        C  0.31489559  0.44048397  0.09704061    -0.10790
C251        C  0.32323453  0.26993783  0.12221756    -0.09230
C252        C  0.32146290  0.24601297  0.09990238    -0.10790
C253        C  0.20125269  0.13400674  0.09353896    -0.09230
C254        C  0.18439618  0.13178096  0.12397597    -0.10790
C255        C  0.20040468  0.13472454  0.40401343    -0.09230
C256        C  0.18417494  0.13345037  0.37347883    -0.10790
C257        C  0.32655129  0.27533984  0.37566799    -0.09230
C258        C  0.32384555  0.25050806  0.39764274    -0.10790
C259        C  0.25714242  0.05944598  0.09867557    -0.09230
C260        C  0.23303243  0.03730542  0.12085606    -0.10790
C261        C  0.37268841  0.03607027  0.12362708    -0.09230
C262        C  0.37006928  0.05072847  0.09339170    -0.10790
C263        C  0.36986841  0.05282514  0.40214308    -0.09230
C264        C  0.37210568  0.03633338  0.37350895    -0.10790
C265        C  0.23190105  0.03820738  0.37369924    -0.09230
C266        C  0.25608226  0.06106239  0.39579107    -0.10790
C267        C  0.45351685  0.30642902  0.40587897    -0.09230
C268        C  0.46931154  0.32336025  0.37594159    -0.10790
C269        C  0.46661641  0.18179468  0.37625635    -0.09230
C270        C  0.44434119  0.18481357  0.39720906    -0.10790
C271        C  0.46539291  0.17584534  0.12394690    -0.09230
C272        C  0.44329759  0.17855697  0.10183245    -0.10790
C273        C  0.46753386  0.31982613  0.12567590    -0.09230
C274        C  0.45255920  0.30284179  0.09544993    -0.10790
O275        O  0.24326893  0.17254221  0.95331512    -0.84140
C276        C  0.43427219  0.28161695  0.55955542     1.15900
O277        O  0.29755754  0.15449674  0.49814943    -1.31950
O278        O  0.40790388  0.28286910  0.95471131    -0.85620
O279        O  0.22231898  0.10983356  0.95309602    -0.86290
O280        O  0.30792242  0.12071894  0.91517579    -0.75110
O281        O  0.32503497  0.22936666  0.96149554    -0.97200
C282        C  0.41806869  0.17934374  0.92730667     1.25950
O283        O  0.35072013  0.12870417  0.99874045    -1.32090
Mn284      Mn  0.34135294  0.16339821  0.54055905     1.82060
O285        O  0.38580619  0.17289739  0.91629494    -0.74180
O286        O  0.44997511  0.26224590  0.95569547    -0.83580
C287        C  0.41677138  0.17799403  0.57019832     1.17030
C288        C  0.43677405  0.28221000  0.94100741     1.11760
O289        O  0.30781885  0.11998653  0.58061394    -0.75120
O290        O  0.37631078  0.20658481  0.99937322    -1.28820
O291        O  0.27639336  0.08070739  0.53481450    -0.94330
C292        C  0.36629478  0.06921997  0.93957697     1.10470
Mn293      Mn  0.43481834  0.22124694  0.00047840     1.48570
O294        O  0.33297909  0.05580679  0.95357948    -0.83530
Mn295      Mn  0.25017696  0.09769190  0.49810642     1.49560
O296        O  0.24186842  0.17131005  0.54385118    -0.87410
C297        C  0.32713241  0.22433885  0.92616392     1.23660
C298        C  0.22255930  0.13804777  0.55840696     1.15720
Mn299      Mn  0.34211735  0.16360575  0.95603202     1.80970
O300        O  0.42417289  0.18068705  0.53495506    -0.92560
Mn301      Mn  0.28353129  0.19803353  0.99861045     1.49260
C302        C  0.22323992  0.13936283  0.93896601     1.12240
Mn303      Mn  0.40730548  0.13919906  0.49621265     1.49930
C304        C  0.36814213  0.06941207  0.55410828     1.15150
O305        O  0.27599848  0.08068847  0.96038770    -0.98360
O306        O  0.44790860  0.26201513  0.54509425    -0.88030
C307        C  0.28173934  0.08830590  0.92513091     1.26430
O308        O  0.42474684  0.18053027  0.96267663    -0.98750
O309        O  0.40575393  0.28254594  0.54499731    -0.86150
O310        O  0.39688524  0.09825522  0.53947468    -0.85760
O311        O  0.22221717  0.10889498  0.54407021    -0.85780
Mn312      Mn  0.36603929  0.25490877  0.49921301     1.47860
O313        O  0.38458146  0.17186860  0.58069832    -0.74250
C314        C  0.28216629  0.08767937  0.57004647     1.19480
O315        O  0.33364074  0.19847048  0.91568141    -0.72990
O316        O  0.33203290  0.19668025  0.58133496    -0.72600
Mn317      Mn  0.30688769  0.07024301  0.99821648     1.51060
O318        O  0.39562291  0.09792654  0.95384435    -0.84950
O319        O  0.32332962  0.22840246  0.53622579    -0.92480
O320        O  0.33423085  0.05645778  0.54157195    -0.87490
C321        C  0.32487792  0.22220191  0.57133105     1.17270
C322        C  0.35957728  0.47929650  0.65728217     0.04610
C323        C  0.38336256  0.01776338  0.65140501     0.04600
C324        C  0.18348597  0.47892683  0.65003042     0.04610
C325        C  0.20247049  0.01735563  0.64758717     0.04600
C326        C  0.36259116  0.47481972  0.84950435     0.04610
C327        C  0.37663293  0.01282148  0.84414063     0.04600
C328        C  0.18007366  0.47505460  0.85285394     0.04610
C329        C  0.20040401  0.01398158  0.84872635     0.04600
C330        C  0.33376633  0.30089534  0.64950866     0.04610
C331        C  0.31491624  0.32062391  0.65120469     0.04600
C332        C  0.16341296  0.13110697  0.65999605     0.04610
C333        C  0.14344319  0.14980023  0.65974471     0.04600
C334        C  0.31629692  0.32627500  0.85238085     0.04610
C335        C  0.33578115  0.30695263  0.85065829     0.04600
C336        C  0.16527480  0.13480259  0.83751216     0.04610
C337        C  0.14567604  0.15390536  0.83756180     0.04600
C338        C  0.33320275  0.39650605  0.72889862     0.04610
C339        C  0.34118069  0.40156438  0.76838767     0.04600
C340        C  0.02505959  0.18448276  0.64934016     0.04610
C341        C  0.48572481  0.16520867  0.64867734     0.04600
C342        C  0.02661192  0.35896977  0.66098812     0.04570
C343        C  0.98796624  0.34065971  0.66073406     0.04600
C344        C  0.02881279  0.36446546  0.84111679     0.04610
C345        C  0.99025830  0.34392503  0.84029645     0.04600
C346        C  0.49085948  0.17127258  0.85145305     0.04610
C347        C  0.02882145  0.19228286  0.84860313     0.04600
C348        C  0.11026018  0.41747850  0.76822708     0.04610
C349        C  0.11320334  0.41498446  0.72831014     0.04600
C350        C  0.09408850  0.18603499  0.72770993     0.04610
C351        C  0.09199309  0.18577421  0.76801969     0.04600
C352        C  0.43682272  0.09003387  0.73312021     0.04610
C353        C  0.43466236  0.09528945  0.77272489     0.04600
C354        C  0.40422763  0.31134559  0.73212446     0.04610
C355        C  0.40414083  0.30855292  0.77236710     0.04600
C356        C  0.19581123  0.07887717  0.73058548     0.04610
C357        C  0.19903951  0.08187456  0.77080851     0.04600
O358        O  0.18125143  0.22827933  0.54539565    -0.84140
C359        C  0.29521172  0.42300977  0.94621033     1.15900
O360        O  0.16476530  0.28496549  0.00134766    -1.31950
O361        O  0.29217853  0.39220288  0.55003246    -0.85620
O362        O  0.11863665  0.20780762  0.54423640    -0.86290
O363        O  0.12932675  0.29294875  0.58388334    -0.75110
O364        O  0.23840046  0.30985708  0.54043358    -0.97200
C365        C  0.18919371  0.40341430  0.57525172     1.25950
O366        O  0.13976841  0.33776186  0.00140764    -1.32090
Mn367      Mn  0.17494654  0.32929480  0.95926141     1.82060
O368        O  0.18191034  0.37069563  0.58547305    -0.74180
O369        O  0.27289977  0.43533733  0.54816848    -0.83580
C370        C  0.19101653  0.40519948  0.93022330     1.17030
C371        C  0.29209686  0.42150279  0.56317389     1.11760
O372        O  0.13267136  0.29634101  0.91784404    -0.75120
O373        O  0.21761439  0.36270379  0.00305685    -1.28820
O374        O  0.09185029  0.26415264  0.96224064    -0.94330
C375        C  0.07970345  0.35285073  0.56016556     1.10470
Mn376      Mn  0.23296331  0.42130119  0.50304616     1.48570
O377        O  0.06635349  0.31976446  0.54545307    -0.83530
Mn378      Mn  0.10800136  0.23745892  0.99940511     1.49560
O379        O  0.18308784  0.23036725  0.95532652    -0.87410
C380        C  0.23242862  0.31126767  0.57564479     1.23660
C381        C  0.15014102  0.21109158  0.93994771     1.15720
Mn382      Mn  0.17328848  0.32782727  0.54465950     1.80970
O383        O  0.19215115  0.41169211  0.96550641    -0.92560
Mn384      Mn  0.20819947  0.26967239  0.50161011     1.49260
C385        C  0.14775827  0.20814313  0.55885115     1.12240
Mn386      Mn  0.14908919  0.39451338  0.00207769     1.49930
C387        C  0.08129454  0.35496880  0.94131616     1.15150
O388        O  0.09035595  0.26216259  0.53737389    -0.98360
O389        O  0.27427135  0.43596175  0.95867708    -0.88030
C390        C  0.09725059  0.26692041  0.57284510     1.26430
O391        O  0.19138879  0.41094593  0.54000186    -0.98750
O392        O  0.29507741  0.39404984  0.96078805    -0.86150
O393        O  0.10989472  0.38390106  0.95624157    -0.85760
O394        O  0.12055466  0.21031171  0.95365318    -0.85780
Mn395      Mn  0.26497719  0.35318410  0.00429251     1.47860
O396        O  0.18484136  0.37311584  0.91930598    -0.74250
C397        C  0.09993062  0.27069282  0.92721949     1.19480
O398        O  0.20657304  0.31793562  0.58560158    -0.72990
O399        O  0.20978901  0.32087965  0.91962538    -0.72600
Mn400      Mn  0.08118577  0.29437470  0.50017172     1.51060
O401        O  0.10860672  0.38235512  0.54652785    -0.84950
O402        O  0.24022547  0.31159980  0.96574176    -0.92480
O403        O  0.06750821  0.32142653  0.95506561    -0.87490
C404        C  0.23546241  0.31419500  0.93044532     1.17270
C405        C  0.06252995  0.19150312  0.78854059    -0.12390
C406        C  0.05136739  0.17938546  0.82581860    -0.27570
H407        H  0.05066825  0.20716235  0.77383730     0.16630
H408        H  0.06242634  0.16355915  0.84166206     0.17210
C409        C  0.46145689  0.13220956  0.79229894    -0.12390
C410        C  0.46859355  0.13433886  0.83135288    -0.27570
H411        H  0.47457395  0.15843004  0.77512002     0.16630
H412        H  0.45507279  0.10902222  0.84989676     0.17210
C413        C  0.05078985  0.22405520  0.87471357    -0.09230
C414        C  0.07277293  0.24748688  0.89769619    -0.10790
C415        C  0.05130234  0.38956516  0.80780245    -0.12390
C416        C  0.07897649  0.38569836  0.79062131    -0.27570
H417        H  0.04754409  0.41353746  0.80007770     0.16630
H418        H  0.08248511  0.36153996  0.79827990     0.17210
C419        C  0.46689077  0.34125562  0.80528507    -0.12390
C420        C  0.43530159  0.30868331  0.79550909    -0.27570
H421        H  0.47396623  0.36739082  0.78950862     0.16630
H422        H  0.42807948  0.28290993  0.81211442     0.17210
C423        C  0.04941820  0.36325371  0.87613587    -0.09230
C424        C  0.06415485  0.36026409  0.90616364    -0.10790
C425        C  0.04966388  0.38065038  0.69624250    -0.12390
C426        C  0.08383692  0.38399449  0.70346533    -0.27570
H427        H  0.04014770  0.39639636  0.71443755     0.16630
H428        H  0.09370631  0.36897933  0.68454847     0.17210
C429        C  0.46514650  0.34168618  0.69540186    -0.12390
C430        C  0.43413843  0.30998307  0.70798248    -0.27570
H431        H  0.47235427  0.36900956  0.70836247     0.16630
H432        H  0.42671496  0.28280583  0.69443675     0.17210
C433        C  0.04667324  0.35845844  0.62531955    -0.09230
C434        C  0.06175427  0.35677222  0.59513334    -0.10790
C435        C  0.04730155  0.17269035  0.67436268    -0.12390
C436        C  0.06986399  0.19581048  0.70309084    -0.27570
H437        H  0.04438635  0.14477551  0.66998775     0.16630
H438        H  0.07096857  0.22281707  0.70836945     0.17210
C439        C  0.45984636  0.13110311  0.67316005    -0.12390
C440        C  0.46755871  0.12134616  0.70883108    -0.27570
H441        H  0.43066570  0.11475022  0.66237158     0.16630
H442        H  0.49500495  0.13856254  0.72273692     0.17210
C443        C  0.06968190  0.24116115  0.60097478    -0.09230
C444        C  0.04765921  0.21650387  0.62311934    -0.10790
C445        C  0.12416759  0.15510498  0.80207643    -0.12390
C446        C  0.12213460  0.18643939  0.79375582    -0.27570
H447        H  0.10770169  0.12948643  0.78457090     0.16630
H448        H  0.13795535  0.21166633  0.81206031     0.17210
C449        C  0.16703769  0.11352498  0.80224865    -0.12390
C450        C  0.19921853  0.11310374  0.79375757    -0.27570
H451        H  0.14105085  0.09511349  0.78596195     0.16630
H452        H  0.22470213  0.13077428  0.81119014     0.17210
C453        C  0.14509629  0.17371856  0.87360824    -0.09230
C454        C  0.14646236  0.18995130  0.90422638    -0.10790
C455        C  0.32499035  0.36109802  0.82895743    -0.12390
C456        C  0.34004630  0.36966027  0.79224296    -0.27570
H457        H  0.31412501  0.37859834  0.84128888     0.16630
H458        H  0.34746955  0.35070293  0.77730573     0.17210
C459        C  0.36949030  0.29830387  0.79566102    -0.12390
C460        C  0.37003136  0.31970740  0.82612085    -0.27570
H461        H  0.34323495  0.27240700  0.78801849     0.16630
H462        H  0.39548806  0.34665801  0.83285205     0.17210
C463        C  0.28526325  0.31512927  0.87998134    -0.09230
C464        C  0.26078901  0.31207093  0.90238459    -0.10790
C465        C  0.12223551  0.15145494  0.69497865    -0.12390
C466        C  0.12491391  0.18460742  0.70570683    -0.27570
H467        H  0.10145973  0.12506551  0.70912744     0.16630
H468        H  0.14508064  0.21052273  0.69030452     0.17210
C469        C  0.19631397  0.10957611  0.70593280    -0.12390
C470        C  0.16423504  0.10933416  0.69533760    -0.27570
H471        H  0.22254247  0.12781635  0.68993890     0.16630
H472        H  0.13777777  0.09070633  0.71069985     0.17210
C473        C  0.14217489  0.16921474  0.62384290    -0.09230
C474        C  0.14311820  0.18568330  0.59360406    -0.10790
C475        C  0.33108206  0.35716917  0.67235086    -0.12390
C476        C  0.32063968  0.35911661  0.70953001    -0.27570
H477        H  0.34994437  0.38296301  0.65601315     0.16630
H478        H  0.30196348  0.33294201  0.72543695     0.17210
C479        C  0.36981488  0.31248039  0.67096415    -0.12390
C480        C  0.37066119  0.30912384  0.71056517    -0.27570
H481        H  0.39419917  0.31769654  0.65306510     0.16630
H482        H  0.34498381  0.30247775  0.72684831     0.17210
C483        C  0.25728008  0.30883511  0.60456665    -0.09230
C484        C  0.28208833  0.31130770  0.62643627    -0.10790
C485        C  0.18695178  0.03396912  0.82219205    -0.12390
C486        C  0.20993708  0.05788171  0.79425023    -0.27570
H487        H  0.15818086  0.02913080  0.82567261     0.16630
H488        H  0.23796511  0.06114429  0.78945855     0.17210
C489        C  0.14464636  0.44913371  0.83086152    -0.12390
C490        C  0.14193905  0.44947047  0.79112404    -0.27570
H491        H  0.12288774  0.42535475  0.84764334     0.16630
H492        H  0.16530778  0.47246603  0.77507148     0.17210
C493        C  0.19156211  0.45550018  0.88059889    -0.09230
C494        C  0.19419496  0.43337294  0.90243163    -0.10790
C495        C  0.40290455  0.06714699  0.79781731    -0.12390
C496        C  0.39955910  0.03365862  0.80860562    -0.27570
H497        H  0.38685042  0.07783425  0.81373807     0.16630
H498        H  0.41603514  0.02316417  0.79321200     0.17210
C499        C  0.34670280  0.43668020  0.78880871    -0.12390
C500        C  0.36812692  0.45000993  0.82166162    -0.27570
H501        H  0.33039839  0.44981303  0.77870529     0.16630
H502        H  0.38399837  0.43669444  0.83245050     0.17210
C503        C  0.34004894  0.45629992  0.88460545    -0.09230
C504        C  0.32006704  0.44160001  0.91318820    -0.10790
C505        C  0.19129043  0.04146782  0.67011440    -0.12390
C506        C  0.19857281  0.04790373  0.70915245    -0.27570
H507        H  0.18225708  0.05823199  0.65286902     0.16630
H508        H  0.20840865  0.03094724  0.72486253     0.17210
C509        C  0.14904938  0.44054060  0.70727646    -0.12390
C510        C  0.14895747  0.45899475  0.67441312    -0.27570
H511        H  0.17556492  0.44309356  0.71808492     0.16630
H512        H  0.12286582  0.45766552  0.66401225     0.17210
C513        C  0.19172249  0.45471433  0.62521812    -0.09230
C514        C  0.19266234  0.43132326  0.60379797    -0.10790
C515        C  0.33067579  0.42517520  0.70360657    -0.12390
C516        C  0.36121220  0.45852305  0.69321538    -0.27570
H517        H  0.30412545  0.41492092  0.68729715     0.16630
H518        H  0.38801463  0.46869628  0.70898895     0.17210
C519        C  0.41391780  0.04206760  0.67940848    -0.12390
C520        C  0.40647046  0.05531376  0.71266607    -0.27570
H521        H  0.44297123  0.05508446  0.66848736     0.16630
H522        H  0.37720453  0.04254942  0.72300494     0.17210
C523        C  0.33399571  0.45710130  0.62540567    -0.09230
C524        C  0.31476686  0.44012669  0.59723625    -0.10790
C525        C  0.32275144  0.26946010  0.62276163    -0.09230
C526        C  0.32084715  0.24568027  0.60016483    -0.10790
C527        C  0.20087079  0.13348223  0.59392745    -0.09230
C528        C  0.18410808  0.13139537  0.62436813    -0.10790
C529        C  0.20145143  0.13539608  0.90383499    -0.09230
C530        C  0.18501912  0.13414906  0.87345647    -0.10790
C531        C  0.32671929  0.27448935  0.87612686    -0.09230
C532        C  0.32474389  0.24971486  0.89777647    -0.10790
C533        C  0.25785043  0.05989196  0.59833220    -0.09230
C534        C  0.23366498  0.03793291  0.62058767    -0.10790
C535        C  0.37981399  0.03656461  0.61620846    -0.09230
C536        C  0.37453421  0.05107015  0.58737074    -0.10790
C537        C  0.37076489  0.05107276  0.90516910    -0.09230
C538        C  0.37337323  0.03480325  0.87646837    -0.10790
C539        C  0.23284928  0.03817447  0.87393096    -0.09230
C540        C  0.25707001  0.06092292  0.89608135    -0.10790
C541        C  0.45486904  0.30427034  0.90601368    -0.09230
C542        C  0.47001873  0.32136652  0.87589585    -0.10790
C543        C  0.46908512  0.18107927  0.87789890    -0.09230
C544        C  0.44630428  0.18281711  0.89944358    -0.10790
C545        C  0.46533135  0.17602795  0.62098658    -0.09230
C546        C  0.44395664  0.17939167  0.59851945    -0.10790
C547        C  0.46649466  0.31975485  0.62552207    -0.09230
C548        C  0.45150006  0.30305700  0.59514821    -0.10790
O549        O  0.24267038  0.67223361  0.45310288    -0.84140
C550        C  0.43470482  0.78135540  0.05923181     1.15900
O551        O  0.29802375  0.65438262  0.99757005    -1.31950
O552        O  0.40694747  0.78388671  0.45412256    -0.85620
O553        O  0.22187071  0.60953840  0.45314074    -0.86290
O554        O  0.30714733  0.62100669  0.41418512    -0.75110
O555        O  0.32427183  0.72964438  0.46098975    -0.97200
C556        C  0.41740523  0.68081744  0.42478983     1.25950
O557        O  0.35098451  0.62942075  0.49703269    -1.32090
Mn558      Mn  0.34175863  0.66318920  0.04003174     1.82060
O559        O  0.38483122  0.67376639  0.41430207    -0.74180
O560        O  0.44939226  0.76376315  0.45451712    -0.83580
C561        C  0.41715047  0.67792085  0.06970779     1.17030
C562        C  0.43597565  0.78365481  0.44027505     1.11760
O563        O  0.30815898  0.61974592  0.08010732    -0.75120
O564        O  0.37596863  0.70722163  0.49799348    -1.28820
O565        O  0.27675740  0.58061741  0.03423747    -0.94330
C566        C  0.36645032  0.57046658  0.43710126     1.10470
Mn567      Mn  0.43458798  0.72239909  0.49852194     1.48570
O568        O  0.33339660  0.55669671  0.45184963    -0.83530
Mn569      Mn  0.25056977  0.59764064  0.99757943     1.49560
O570        O  0.24225179  0.67124460  0.04339466    -0.87410
C571        C  0.32632004  0.72467722  0.42561682     1.23660
C572        C  0.22289076  0.63798953  0.05796590     1.15720
Mn573      Mn  0.34155048  0.66405664  0.45480292     1.80970
O574        O  0.42457019  0.68053132  0.03447779    -0.92560
Mn575      Mn  0.28299656  0.69792178  0.49825202     1.49260
C576        C  0.22265753  0.63898288  0.43892457     1.12240
Mn577      Mn  0.40778057  0.63894942  0.99593618     1.49930
C578        C  0.36832466  0.56918145  0.05387559     1.15150
O579        O  0.27603546  0.58093659  0.45966328    -0.98360
O580        O  0.44838348  0.76182830  0.04462514    -0.88030
C581        C  0.28132706  0.58848844  0.42436484     1.26430
O582        O  0.42449840  0.68212514  0.46006114    -0.98750
O583        O  0.40613621  0.78223076  0.04473937    -0.86150
O584        O  0.39710522  0.59812890  0.03943857    -0.85760
O585        O  0.22256922  0.60883664  0.04362043    -0.85780
Mn586      Mn  0.36650742  0.75467712  0.99885002     1.47860
O587        O  0.38492534  0.67168466  0.08018323    -0.74250
C588        C  0.28247976  0.58747360  0.06947356     1.19480
O589        O  0.33246919  0.69865402  0.41492588    -0.72990
O590        O  0.33238756  0.69640312  0.08083916    -0.72600
Mn591      Mn  0.30759009  0.57082076  0.49687708     1.51060
O592        O  0.39582102  0.59969169  0.45045967    -0.84950
O593        O  0.32374513  0.72814387  0.03574185    -0.92480
O594        O  0.33446459  0.55620406  0.04116134    -0.87490
C595        C  0.32518337  0.72188187  0.07083174     1.17270
C596        C  0.35521800  0.97754296  0.15977452     0.04610
C597        C  0.38372758  0.51739794  0.15095798     0.04600
C598        C  0.18254174  0.97806180  0.14971864     0.04610
C599        C  0.20292192  0.51745829  0.14720648     0.04600
C600        C  0.36101960  0.97640936  0.34670602     0.04610
C601        C  0.37651363  0.51275405  0.34326018     0.04600
C602        C  0.17972366  0.97547232  0.35286511     0.04610
C603        C  0.19982616  0.51356908  0.34852291     0.04600
C604        C  0.33289920  0.79966322  0.14953391     0.04610
C605        C  0.31332179  0.81860927  0.15207966     0.04600
C606        C  0.16320936  0.63077952  0.15941789     0.04610
C607        C  0.14332123  0.64955881  0.15935359     0.04600
C608        C  0.31727044  0.82765547  0.35325124     0.04610
C609        C  0.33655770  0.80823864  0.35083492     0.04600
C610        C  0.16476288  0.63439243  0.33746805     0.04610
C611        C  0.14528769  0.65362032  0.33752733     0.04600
C612        C  0.32776979  0.89346464  0.22923759     0.04610
C613        C  0.33708970  0.89992661  0.26836587     0.04600
C614        C  0.02476819  0.68429566  0.14906372     0.04610
C615        C  0.48599699  0.66508817  0.14801053     0.04600
C616        C  0.02636658  0.85877981  0.16102942     0.04570
C617        C  0.98771852  0.84058532  0.16066066     0.04600
C618        C  0.02845967  0.86445131  0.34132185     0.04610
C619        C  0.98991109  0.84397196  0.34051143     0.04600
C620        C  0.49042618  0.67193947  0.34981118     0.04610
C621        C  0.02892809  0.69251733  0.34885949     0.04600
C622        C  0.10986550  0.91751840  0.26848358     0.04610
C623        C  0.11270575  0.91484355  0.22858829     0.04600
C624        C  0.09336918  0.68514679  0.22742920     0.04610
C625        C  0.09101263  0.68450129  0.26774275     0.04600
C626        C  0.43698681  0.58990654  0.23232661     0.04610
C627        C  0.43458197  0.59526837  0.27182204     0.04600
C628        C  0.40436713  0.81201171  0.23180597     0.04610
C629        C  0.40481097  0.81011144  0.27209139     0.04600
C630        C  0.19480517  0.57821899  0.23035817     0.04610
C631        C  0.19808870  0.58111573  0.27057898     0.04600
O632        O  0.18088437  0.72787056  0.04507546    -0.84140
C633        C  0.29510667  0.92374775  0.44461377     1.15900
O634        O  0.16520801  0.78552442  0.50106029    -1.31950
O635        O  0.29256582  0.89169075  0.04929542    -0.85620
O636        O  0.11830261  0.70758103  0.04403617    -0.86290
O637        O  0.12922541  0.79273308  0.08373571    -0.75110
O638        O  0.23824788  0.80931105  0.04017825    -0.97200
C639        C  0.18938189  0.90316455  0.07517990     1.25950
O640        O  0.14005109  0.83819217  0.50123110    -1.32090
Mn641      Mn  0.17507625  0.82971630  0.45888705     1.82060
O642        O  0.18200699  0.87041851  0.08539496    -0.74180
O643        O  0.27334728  0.93488808  0.04779611    -0.83580
C644        C  0.19090776  0.90550733  0.42979705     1.17030
C645        C  0.29281367  0.92115264  0.06239454     1.11760
O646        O  0.13260004  0.79660177  0.41772125    -0.75120
O647        O  0.21797419  0.86334581  0.50243876    -1.28820
O648        O  0.09209236  0.76449495  0.46238239    -0.94330
C649        C  0.07977957  0.85280880  0.06030007     1.10470
Mn650      Mn  0.23309779  0.92096492  0.00293573     1.48570
O651        O  0.06634134  0.81976436  0.04544741    -0.83530
Mn652      Mn  0.10850295  0.73793122  0.49940857     1.49560
O653        O  0.18345981  0.73086846  0.45501112    -0.87410
C654        C  0.23217954  0.81067948  0.07539277     1.23660
C655        C  0.15046524  0.71151794  0.43973244     1.15720
Mn656      Mn  0.17320620  0.82754389  0.04449093     1.80970
O657        O  0.19218071  0.91204933  0.46507186    -0.92560
Mn658      Mn  0.20782948  0.76920728  0.00131915     1.49260
C659        C  0.14741011  0.70783966  0.05858519     1.12240
Mn660      Mn  0.14926615  0.89489280  0.50183422     1.49930
C661        C  0.08120384  0.85511121  0.44141723     1.15150
O662        O  0.09018561  0.76205749  0.03723889    -0.98360
O663        O  0.27432830  0.93669568  0.45761888    -0.88030
C664        C  0.09710619  0.76677820  0.07270591     1.26430
O665        O  0.19159536  0.91069579  0.03995224    -0.98750
O666        O  0.29515557  0.89480774  0.45911845    -0.86150
O667        O  0.10984735  0.88410785  0.45619123    -0.85760
O668        O  0.12091338  0.71074045  0.45355046    -0.85780
Mn669      Mn  0.26548386  0.85407695  0.50324979     1.47860
O670        O  0.18469746  0.87341291  0.41887428    -0.74250
C671        C  0.09993603  0.77095554  0.42732277     1.19480
O672        O  0.20640008  0.81747171  0.08530735    -0.72990
O673        O  0.20972289  0.82122217  0.41904512    -0.72600
Mn674      Mn  0.08109428  0.79435279  0.00009668     1.51060
O675        O  0.10877781  0.88229928  0.04675102    -0.84950
O676        O  0.24033902  0.81224171  0.46514327    -0.92480
O677        O  0.06752896  0.82161013  0.45525516    -0.87490
C678        C  0.23543526  0.81461287  0.42988210     1.17270
C679        C  0.06081879  0.68917829  0.28829437    -0.12390
C680        C  0.05196318  0.67982491  0.32662187    -0.27570
H681        H  0.04645463  0.70192465  0.27265118     0.16630
H682        H  0.06579843  0.66732287  0.34365228     0.17210
C683        C  0.46063586  0.63254860  0.29107298    -0.12390
C684        C  0.46898383  0.63488881  0.32980470    -0.27570
H685        H  0.47218337  0.65871320  0.27388444     0.16630
H686        H  0.45723190  0.60945530  0.34818898     0.17210
C687        C  0.05053720  0.72419132  0.37515364    -0.09230
C688        C  0.07257444  0.74768711  0.39802559    -0.10790
C689        C  0.05091476  0.88946269  0.30796266    -0.12390
C690        C  0.07876123  0.88574888  0.29101898    -0.27570
H691        H  0.04690981  0.91322016  0.29992770     0.16630
H692        H  0.08252597  0.86180316  0.29896223     0.17210
C693        C  0.46756307  0.84285390  0.30505419    -0.12390
C694        C  0.43610208  0.81027923  0.29496989    -0.27570
H695        H  0.47461163  0.86915634  0.28965268     0.16630
H696        H  0.42902136  0.78436889  0.31124396     0.17210
C697        C  0.04907933  0.86324058  0.37634024    -0.09230
C698        C  0.06389118  0.86028793  0.40633146    -0.10790
C699        C  0.04929871  0.88051610  0.19631775    -0.12390
C700        C  0.08331443  0.88363629  0.20394038    -0.27570
H701        H  0.03983893  0.89650749  0.21419149     0.16630
H702        H  0.09313217  0.86837921  0.18532685     0.17210
C703        C  0.46532795  0.84179344  0.19517266    -0.12390
C704        C  0.43403253  0.81027556  0.20755650    -0.27570
H705        H  0.47289380  0.86911628  0.20838391     0.16630
H706        H  0.42621481  0.78310077  0.19375653     0.17210
C707        C  0.04655271  0.85825033  0.12544356    -0.09230
C708        C  0.06177402  0.85666774  0.09529614    -0.10790
C709        C  0.04688783  0.67227616  0.17395020    -0.12390
C710        C  0.06931881  0.69515801  0.20287149    -0.27570
H711        H  0.04396373  0.64438569  0.16934161     0.16630
H712        H  0.07038071  0.72210562  0.20844969     0.17210
C713        C  0.46014323  0.63076914  0.17219663    -0.12390
C714        C  0.46767592  0.62132528  0.20811235    -0.27570
H715        H  0.43112897  0.61411021  0.16104428     0.16630
H716        H  0.49487596  0.63903869  0.22231946     0.17210
C717        C  0.06951518  0.74103606  0.10082763    -0.09230
C718        C  0.04744240  0.71635890  0.12292183    -0.10790
C719        C  0.12340475  0.65437444  0.30218894    -0.12390
C720        C  0.12148457  0.68564937  0.29330683    -0.27570
H721        H  0.10657272  0.62846701  0.28521561     0.16630
H722        H  0.13767006  0.71123096  0.31101886     0.17210
C723        C  0.16639660  0.61302432  0.30218965    -0.12390
C724        C  0.19846007  0.61236565  0.29370513    -0.27570
H725        H  0.14042891  0.59483509  0.28576548     0.16630
H726        H  0.22394515  0.62983258  0.31121785     0.17210
C727        C  0.14506064  0.67381059  0.37345543    -0.09230
C728        C  0.14666144  0.69025488  0.40402089    -0.10790
C729        C  0.32621681  0.86272455  0.33050854    -0.12390
C730        C  0.33796193  0.86931608  0.29259531    -0.27570
H731        H  0.31702983  0.88112992  0.34402526     0.16630
H732        H  0.34348546  0.84909727  0.27738845     0.17210
C733        C  0.37026546  0.79981663  0.29563862    -0.12390
C734        C  0.37075485  0.82125720  0.32604582    -0.27570
H735        H  0.34410100  0.77371056  0.28827914     0.16630
H736        H  0.39605082  0.84842993  0.33247619     0.17210
C737        C  0.28575615  0.81590752  0.38019956    -0.09230
C738        C  0.26081469  0.81252461  0.40200671    -0.10790
C739        C  0.12202196  0.65102817  0.19464190    -0.12390
C740        C  0.12438698  0.68404556  0.20541055    -0.27570
H741        H  0.10144405  0.62458145  0.20884762     0.16630
H742        H  0.14436936  0.71002573  0.18997932     0.17210
C743        C  0.19557766  0.60917619  0.20596135    -0.12390
C744        C  0.16351863  0.60851506  0.19451044    -0.27570
H745        H  0.22217952  0.62811380  0.19091370     0.16630
H746        H  0.13675447  0.58926206  0.20903571     0.17210
C747        C  0.14201395  0.66902078  0.12354850    -0.09230
C748        C  0.14281332  0.68542898  0.09333266    -0.10790
C749        C  0.32884082  0.85466679  0.17399938    -0.12390
C750        C  0.31630287  0.85617576  0.21030757    -0.27570
H751        H  0.34890705  0.88066956  0.15867127     0.16630
H752        H  0.29677232  0.82995218  0.22565074     0.17210
C753        C  0.36911797  0.81151946  0.17074334    -0.12390
C754        C  0.37053434  0.80933794  0.21042321    -0.27570
H755        H  0.39320908  0.81605640  0.15271351     0.16630
H756        H  0.34516843  0.80334542  0.22694600     0.17210
C757        C  0.25658952  0.80768388  0.10448250    -0.09230
C758        C  0.28086984  0.80962451  0.12682051    -0.10790
C759        C  0.18620371  0.53341929  0.32206487    -0.12390
C760        C  0.20896246  0.55702263  0.29381992    -0.27570
H761        H  0.15758277  0.52887448  0.32597253     0.16630
H762        H  0.23680250  0.55995773  0.28862122     0.17210
C763        C  0.14423879  0.94956048  0.33096602    -0.12390
C764        C  0.14144605  0.94976458  0.29123563    -0.27570
H765        H  0.12255853  0.92578267  0.34781811     0.16630
H766        H  0.16468643  0.97282656  0.27511152     0.17210
C767        C  0.19128162  0.95584811  0.38041423    -0.09230
C768        C  0.19398450  0.93365634  0.40206278    -0.10790
C769        C  0.40294006  0.56707467  0.29696759    -0.12390
C770        C  0.39935354  0.53341152  0.30758207    -0.27570
H771        H  0.38698543  0.57784562  0.31293272     0.16630
H772        H  0.41568069  0.52278609  0.29212161     0.17210
C773        C  0.34171979  0.93504976  0.28812573    -0.12390
C774        C  0.36641261  0.95193638  0.31809594    -0.27570
H775        H  0.32232418  0.94523263  0.28002510     0.16630
H776        H  0.38547406  0.94154220  0.32672261     0.17210
C777        C  0.33885000  0.95741196  0.38205795    -0.09230
C778        C  0.31944482  0.94236694  0.41103497    -0.10790
C779        C  0.19221032  0.54219218  0.16930757    -0.12390
C780        C  0.19692858  0.54689850  0.20882012    -0.27570
H781        H  0.18601335  0.56088307  0.15164125     0.16630
H782        H  0.20431696  0.52824040  0.22497944     0.17210
C783        C  0.14839800  0.94057978  0.20742241    -0.12390
C784        C  0.14785941  0.95766656  0.17369891    -0.27570
H785        H  0.17525630  0.94450798  0.21892478     0.16630
H786        H  0.12139487  0.95482558  0.16232825     0.17210
C787        C  0.19134085  0.95430137  0.12489514    -0.09230
C788        C  0.19265492  0.93102464  0.10364159    -0.10790
C789        C  0.32512841  0.92145166  0.20314859    -0.12390
C790        C  0.35536315  0.95559414  0.19512557    -0.27570
H791        H  0.29972518  0.91067933  0.18473800     0.16630
H792        H  0.38110736  0.96599039  0.21286976     0.17210
C793        C  0.41435377  0.54181801  0.17878349    -0.12390
C794        C  0.40683463  0.55504518  0.21197727    -0.27570
H795        H  0.44338294  0.55495844  0.16777085     0.16630
H796        H  0.37755648  0.54214992  0.22232028     0.17210
C797        C  0.33404815  0.95646232  0.12504943    -0.09230
C798        C  0.31593904  0.93988439  0.09615398    -0.10790
C799        C  0.32233162  0.76866470  0.12233432    -0.09230
C800        C  0.32080939  0.74513971  0.09963700    -0.10790
C801        C  0.20108012  0.63343561  0.09346564    -0.09230
C802        C  0.18414810  0.63129638  0.12383920    -0.10790
C803        C  0.20080136  0.63486825  0.40382326    -0.09230
C804        C  0.18444842  0.63366439  0.37340798    -0.10790
C805        C  0.32712936  0.77538595  0.37571918    -0.09230
C806        C  0.32447834  0.75034956  0.39733275    -0.10790
C807        C  0.25814231  0.55954939  0.09764952    -0.09230
C808        C  0.23394093  0.53756046  0.11987986    -0.10790
C809        C  0.37996506  0.53607886  0.11577122    -0.09230
C810        C  0.37462996  0.55068100  0.08705057    -0.10790
C811        C  0.37058679  0.55188080  0.40308679    -0.09230
C812        C  0.37305525  0.53501003  0.37497532    -0.10790
C813        C  0.23229430  0.53791226  0.37361086    -0.09230
C814        C  0.25656464  0.56087400  0.39555818    -0.10790
C815        C  0.45410111  0.80608559  0.40562244    -0.09230
C816        C  0.46973953  0.82311451  0.37571051    -0.10790
C817        C  0.46789555  0.68179293  0.37513642    -0.09230
C818        C  0.44522292  0.68394032  0.39651591    -0.10790
C819        C  0.46567480  0.67606281  0.12048021    -0.09230
C820        C  0.44432699  0.67944988  0.09804380    -0.10790
C821        C  0.46679601  0.81958410  0.12531181    -0.09230
C822        C  0.45192332  0.80279164  0.09490133    -0.10790
O823        O  0.24244358  0.67213857  0.95300455    -0.84140
C824        C  0.43489034  0.78145871  0.55926165     1.15900
O825        O  0.29816219  0.65445003  0.49772578    -1.31950
O826        O  0.40673132  0.78397640  0.95416790    -0.85620
O827        O  0.22170589  0.60945431  0.95302638    -0.86290
O828        O  0.30701287  0.62107418  0.91397787    -0.75110
O829        O  0.32404471  0.72965858  0.96094783    -0.97200
C830        C  0.41726185  0.68095538  0.92449863     1.25950
O831        O  0.35093151  0.62944661  0.99672683    -1.32090
Mn832      Mn  0.34183024  0.66328535  0.54026571     1.82060
O833        O  0.38468114  0.67391108  0.91404347    -0.74180
O834        O  0.44917575  0.76384988  0.95439164    -0.83580
C835        C  0.41715855  0.67791155  0.56999662     1.17030
C836        C  0.43575001  0.78376583  0.94025579     1.11760
O837        O  0.30814769  0.61987343  0.58033932    -0.75120
O838        O  0.37582444  0.70721565  0.99782231    -1.28820
O839        O  0.27681934  0.58069105  0.53446004    -0.94330
C840        C  0.36643418  0.57053534  0.93680273     1.10470
Mn841      Mn  0.43446588  0.72246092  0.99830132     1.48570
O842        O  0.33339240  0.55674509  0.95158648    -0.83530
Mn843      Mn  0.25068015  0.59771865  0.49773627     1.49560
O844        O  0.24248406  0.67142973  0.54346593    -0.87410
C845        C  0.32607452  0.72475130  0.92555296     1.23660
C846        C  0.22309274  0.63817466  0.55802681     1.15720
Mn847      Mn  0.34140897  0.66410868  0.95459433     1.80970
O848        O  0.42458178  0.68047382  0.53477129    -0.92560
Mn849      Mn  0.28277608  0.69780300  0.99818057     1.49260
C850        C  0.22244422  0.63888170  0.93882214     1.12240
Mn851      Mn  0.40780366  0.63884296  0.49629411     1.49930
C852        C  0.36822701  0.56901511  0.55420565     1.15150
O853        O  0.27597515  0.58094372  0.95945294    -0.98360
O854        O  0.44850742  0.76182907  0.54478007    -0.88030
C855        C  0.28125295  0.58852487  0.92415925     1.26430
O856        O  0.42438336  0.68224582  0.95976022    -0.98750
O857        O  0.40638129  0.78238529  0.54468202    -0.86150
O858        O  0.39703960  0.59800034  0.53985009    -0.85760
O859        O  0.22271588  0.60899604  0.54369582    -0.85780
Mn860      Mn  0.36673278  0.75473860  0.49885131     1.47860
O861        O  0.38496111  0.67176966  0.58046217    -0.74250
C862        C  0.28251581  0.58757327  0.56969700     1.19480
O863        O  0.33225535  0.69875724  0.91480075    -0.72990
O864        O  0.33251163  0.69669258  0.58103109    -0.72600
Mn865      Mn  0.30757224  0.57084026  0.99662006     1.51060
O866        O  0.39579398  0.59981825  0.95008621    -0.84950
O867        O  0.32398309  0.72835975  0.53578449    -0.92480
O868        O  0.33439444  0.55609016  0.54143212    -0.87490
C869        C  0.32544957  0.72226046  0.57091752     1.17270
C870        C  0.35952713  0.98000833  0.65703189     0.04610
C871        C  0.38358657  0.51693647  0.65111760     0.04600
C872        C  0.18295395  0.97886778  0.64956993     0.04610
C873        C  0.20283827  0.51739347  0.64722632     0.04600
C874        C  0.36224424  0.97491744  0.84937444     0.04610
C875        C  0.37659903  0.51254676  0.84330518     0.04600
C876        C  0.18049834  0.97549387  0.85310233     0.04610
C877        C  0.19981465  0.51351754  0.84839741     0.04600
C878        C  0.33433176  0.80130859  0.64874562     0.04610
C879        C  0.31548008  0.82104157  0.65073929     0.04600
C880        C  0.16349880  0.63106744  0.65942133     0.04610
C881        C  0.14385690  0.65009111  0.65933469     0.04600
C882        C  0.31599699  0.82684060  0.85169569     0.04610
C883        C  0.33564741  0.80770333  0.85006143     0.04600
C884        C  0.16450634  0.63417777  0.83731883     0.04610
C885        C  0.14492475  0.65329427  0.83735097     0.04600
C886        C  0.33279900  0.89687742  0.72823928     0.04610
C887        C  0.34073780  0.90200127  0.76774429     0.04600
C888        C  0.02523588  0.68464522  0.64885913     0.04610
C889        C  0.48605250  0.66489933  0.64804438     0.04600
C890        C  0.02666853  0.85921044  0.66105893     0.04570
C891        C  0.98800445  0.84088903  0.66070263     0.04600
C892        C  0.02880803  0.86457215  0.84116989     0.04610
C893        C  0.99024077  0.84412813  0.84041834     0.04600
C894        C  0.49027530  0.67190520  0.84969929     0.04610
C895        C  0.02876506  0.69246418  0.84830393     0.04600
C896        C  0.11041009  0.91806964  0.76855707     0.04610
C897        C  0.11309634  0.91569031  0.72857085     0.04600
C898        C  0.09391877  0.68575363  0.72727607     0.04610
C899        C  0.09148634  0.68514767  0.76757075     0.04600
C900        C  0.43713633  0.58958670  0.73229516     0.04610
C901        C  0.43474476  0.59498861  0.77178510     0.04600
C902        C  0.40473871  0.81244498  0.73171451     0.04610
C903        C  0.40459204  0.80999855  0.77197804     0.04600
C904        C  0.19481183  0.57821104  0.73031645     0.04610
C905        C  0.19813710  0.58115094  0.77052824     0.04600
O906        O  0.18207749  0.72918812  0.54528347    -0.84140
C907        C  0.29502228  0.92236541  0.94576197     1.15900
O908        O  0.16453219  0.78466760  0.00108561    -1.31950
O909        O  0.29301515  0.89342827  0.54887479    -0.85620
O910        O  0.11939556  0.70843495  0.54409649    -0.86290
O911        O  0.12989623  0.79346960  0.58377119    -0.75110
O912        O  0.23917080  0.81089757  0.53988738    -0.97200
C913        C  0.18958837  0.90397684  0.57481442     1.25950
O914        O  0.13977794  0.83766915  0.00135564    -1.32090
Mn915      Mn  0.17474175  0.82908695  0.95907470     1.82060
O916        O  0.18239453  0.87130767  0.58509869    -0.74180
O917        O  0.27332595  0.93623701  0.54734668    -0.83580
C918        C  0.19108938  0.90515242  0.93018291     1.17030
C919        C  0.29278053  0.92260542  0.56217078     1.11760
O920        O  0.13233413  0.79627119  0.91775333    -0.75120
O921        O  0.21760660  0.86232336  0.00278297    -1.28820
O922        O  0.09160292  0.76406416  0.96221567    -0.94330
C923        C  0.07998150  0.85313631  0.56030307     1.10470
Mn924      Mn  0.23312784  0.92191441  0.50239429     1.48570
O925        O  0.06665367  0.82005390  0.54558050    -0.83530
Mn926      Mn  0.10770617  0.73726789  0.99930507     1.49560
O927        O  0.18249294  0.72989053  0.95489862    -0.87410
C928        C  0.23327218  0.81232483  0.57511991     1.23660
C929        C  0.14949208  0.71064086  0.93964881     1.15720
Mn930      Mn  0.17374909  0.82842536  0.54434722     1.80970
O931        O  0.19232969  0.91158743  0.96548799    -0.92560
Mn932      Mn  0.20874886  0.77044200  0.50133455     1.49260
C933        C  0.14859480  0.70893626  0.55872266     1.12240
Mn934      Mn  0.14930845  0.89448585  0.00210191     1.49930
C935        C  0.08138073  0.85512272  0.94139166     1.15150
O936        O  0.09086270  0.76260989  0.53735096    -0.98360
O937        O  0.27431114  0.93548112  0.95845975    -0.88030
C938        C  0.09779438  0.76739655  0.57280485     1.26430
O939        O  0.19166251  0.91143396  0.53956340    -0.98750
O940        O  0.29478138  0.89328589  0.96012642    -0.86150
O941        O  0.11004412  0.88401331  0.95631817    -0.85760
O942        O  0.11998765  0.70994917  0.95348112    -0.85780
Mn943      Mn  0.26483128  0.85252232  0.00370976     1.47860
O944        O  0.18470450  0.87301552  0.91918269    -0.74250
C945        C  0.09962203  0.77061477  0.92718699     1.19480
O946        O  0.20729349  0.81877935  0.58515880    -0.72990
O947        O  0.20931808  0.82055638  0.91927890    -0.72600
Mn948      Mn  0.08144687  0.79468161  0.50022106     1.51060
O949        O  0.10883158  0.88266260  0.54659224    -0.84950
O950        O  0.23976819  0.81101363  0.96519059    -0.92480
O951        O  0.06753478  0.82156517  0.95512783    -0.87490
C952        C  0.23493815  0.81374736  0.92993074     1.17270
C953        C  0.06158108  0.69031816  0.78800732    -0.12390
C954        C  0.05157849  0.67964716  0.82586422    -0.27570
H955        H  0.04841066  0.70445601  0.77271938     0.16630
H956        H  0.06409554  0.66556253  0.84243762     0.17210
C957        C  0.46075138  0.63232482  0.79098271    -0.12390
C958        C  0.46887362  0.63479563  0.82978367    -0.27570
H959        H  0.47242226  0.65843866  0.77369552     0.16630
H960        H  0.45698089  0.60942773  0.84827571     0.17210
C961        C  0.05050337  0.72407880  0.87464613    -0.09230
C962        C  0.07241852  0.74744964  0.89770426    -0.10790
C963        C  0.05123723  0.88955938  0.80774644    -0.12390
C964        C  0.07938846  0.88617087  0.79106679    -0.27570
H965        H  0.04688613  0.91303120  0.79938612     0.16630
H966        H  0.08354282  0.86254771  0.79939242     0.17210
C967        C  0.46744783  0.84259839  0.80488704    -0.12390
C968        C  0.43565975  0.81011439  0.79526445    -0.27570
H969        H  0.47487091  0.86872673  0.78891997     0.16630
H970        H  0.42821960  0.78439266  0.81207871     0.17210
C971        C  0.04944719  0.86340819  0.87621382    -0.09230
C972        C  0.06422825  0.86046197  0.90624519    -0.10790
C973        C  0.04962025  0.88110655  0.69630208    -0.12390
C974        C  0.08375142  0.88445971  0.70387360    -0.27570
H975        H  0.04004969  0.89698453  0.71420539     0.16630
H976        H  0.09366399  0.86929607  0.68524331     0.17210
C977        C  0.46553986  0.84232686  0.69492563    -0.12390
C978        C  0.43462115  0.81076213  0.70785051    -0.27570
H979        H  0.47272177  0.86980213  0.70746497     0.16630
H980        H  0.42723476  0.78341928  0.69475300     0.17210
C981        C  0.04684751  0.85864685  0.62548532    -0.09230
C982        C  0.06202598  0.85701645  0.59532713    -0.10790
C983        C  0.04737928  0.67270744  0.67381803    -0.12390
C984        C  0.06990886  0.69572810  0.70260600    -0.27570
H985        H  0.04435644  0.64475078  0.66941693     0.16630
H986        H  0.07108415  0.72275770  0.70797670     0.17210
C987        C  0.46025577  0.63050142  0.67218887    -0.12390
C988        C  0.46783003  0.62097526  0.70804392    -0.27570
H989        H  0.43122180  0.61385709  0.66108266     0.16630
H990        H  0.49505782  0.63863018  0.72222042     0.17210
C991        C  0.07017519  0.74164063  0.60093877    -0.09230
C992        C  0.04795202  0.71686747  0.62287676    -0.10790
C993        C  0.12344494  0.65446458  0.80185224    -0.12390
C994        C  0.12163861  0.68587153  0.79331323    -0.27570
H995        H  0.10680229  0.62877221  0.78450471     0.16630
H996        H  0.13763402  0.71120575  0.81142644     0.17210
C997        C  0.16632847  0.61297494  0.80200045    -0.12390
C998        C  0.19843383  0.61236238  0.79364109    -0.27570
H999        H  0.14042515  0.59481391  0.78546742     0.16630
H1000       H  0.22384566  0.62978745  0.81127141     0.17210
C1001       C  0.14431339  0.67313464  0.87336506    -0.09230
C1002       C  0.14567496  0.68941720  0.90394819    -0.10790
C1003       C  0.32465478  0.86165827  0.82835928    -0.12390
C1004       C  0.33957296  0.87010614  0.79159946    -0.27570
H1005       H  0.31384065  0.87917614  0.84075321     0.16630
H1006       H  0.34684783  0.85103681  0.77666251     0.17210
C1007       C  0.36977336  0.79960923  0.79507379    -0.12390
C1008       C  0.37010200  0.82068480  0.82576448    -0.27570
H1009       H  0.34353289  0.77384431  0.78707812     0.16630
H1010       H  0.39554355  0.84751021  0.83289747     0.17210
C1011       C  0.28485587  0.81544978  0.87919050    -0.09230
C1012       C  0.26031624  0.81197202  0.90171643    -0.10790
C1013       C  0.12243300  0.65151776  0.69451271    -0.12390
C1014       C  0.12494521  0.68456673  0.70539643    -0.27570
H1015       H  0.10165620  0.62504126  0.70851788     0.16630
H1016       H  0.14513373  0.71058943  0.69016968     0.17210
C1017       C  0.19565531  0.60918589  0.70588974    -0.12390
C1018       C  0.16366691  0.60870969  0.69449695    -0.27570
H1019       H  0.22226560  0.62802344  0.69080182     0.16630
H1020       H  0.13688093  0.58957054  0.70904845     0.17210
C1021       C  0.14295981  0.66987489  0.62359902    -0.09230
C1022       C  0.14402364  0.68648464  0.59344066    -0.10790
C1023       C  0.33166293  0.85749644  0.67215741    -0.12390
C1024       C  0.32025537  0.85946545  0.70889863    -0.27570
H1025       H  0.35141520  0.88328207  0.65632233     0.16630
H1026       H  0.30085897  0.83333811  0.72448122     0.17210
C1027       C  0.37031095  0.81268693  0.67022901    -0.12390
C1028       C  0.37131642  0.81027484  0.70992417    -0.27570
H1029       H  0.39443311  0.81698144  0.65241613     0.16630
H1030       H  0.34586223  0.80445514  0.72616565     0.17210
C1031       C  0.25807833  0.80975335  0.60400297    -0.09230
C1032       C  0.28274784  0.81196705  0.62591974    -0.10790
C1033       C  0.18619115  0.53332561  0.82187382    -0.12390
C1034       C  0.20904518  0.55710105  0.79379174    -0.27570
H1035       H  0.15748390  0.52860032  0.82559025     0.16630
H1036       H  0.23699067  0.56023346  0.78877019     0.17210
C1037       C  0.14498592  0.94968594  0.83114106    -0.12390
C1038       C  0.14211074  0.95011811  0.79142018    -0.27570
H1039       H  0.12328554  0.92584778  0.84791147     0.16630
H1040       H  0.16534275  0.97324142  0.77536188     0.17210
C1041       C  0.19186267  0.95574834  0.88076615    -0.09230
C1042       C  0.19436444  0.93345797  0.90248518    -0.10790
C1043       C  0.40308670  0.56680504  0.79693161    -0.12390
C1044       C  0.39946835  0.53313576  0.80761165    -0.27570
H1045       H  0.38710629  0.57759302  0.81281802     0.16630
H1046       H  0.41579540  0.52247389  0.79221630     0.17210
C1047       C  0.34624842  0.93711737  0.78824100    -0.12390
C1048       C  0.36787717  0.95049783  0.82099061    -0.27570
H1049       H  0.32969493  0.95006250  0.77839996     0.16630
H1050       H  0.38401714  0.93733619  0.83139754     0.17210
C1051       C  0.33967172  0.95590578  0.88422191    -0.09230
C1052       C  0.31975652  0.94096635  0.91274176    -0.10790
C1053       C  0.19199676  0.54201072  0.66934745    -0.12390
C1054       C  0.19700782  0.54692311  0.70881105    -0.27570
H1055       H  0.18545937  0.56047291  0.65170725     0.16630
H1056       H  0.20469378  0.52846991  0.72493669     0.17210
C1057       C  0.14878885  0.94152311  0.70739119    -0.12390
C1058       C  0.14826803  0.95857556  0.67361843    -0.27570
H1059       H  0.17565691  0.94545522  0.71886559     0.16630
H1060       H  0.12179340  0.95566869  0.66219625     0.17210
C1061       C  0.19155019  0.95502604  0.62464958    -0.09230
C1062       C  0.19283627  0.93181577  0.60327506    -0.10790
C1063       C  0.33038711  0.92549960  0.70280718    -0.12390
C1064       C  0.36089646  0.95902816  0.69288973    -0.27570
H1065       H  0.30404715  0.91516136  0.68608321     0.16630
H1066       H  0.38750237  0.96928413  0.70907333     0.17210
C1067       C  0.41431913  0.54140948  0.67881815    -0.12390
C1068       C  0.40691180  0.55473305  0.71200155    -0.27570
H1069       H  0.44331529  0.55450098  0.66771860     0.16630
H1070       H  0.37765632  0.54189172  0.72240528     0.17210
C1071       C  0.33439338  0.95799848  0.62472220    -0.09230
C1072       C  0.31543391  0.94121030  0.59630287    -0.10790
C1073       C  0.32323583  0.76982736  0.62197673    -0.09230
C1074       C  0.32139100  0.74589648  0.59959583    -0.10790
C1075       C  0.20131639  0.63363841  0.59351288    -0.09230
C1076       C  0.18441289  0.63150676  0.62388500    -0.10790
C1077       C  0.20054231  0.63472719  0.90373064    -0.09230
C1078       C  0.18415545  0.63345751  0.87330985    -0.10790
C1079       C  0.32645706  0.77521970  0.87549763    -0.09230
C1080       C  0.32404577  0.75037653  0.89729225    -0.10790
C1081       C  0.25816614  0.55964583  0.59785522    -0.09230
C1082       C  0.23392447  0.53760307  0.62001093    -0.10790
C1083       C  0.37972051  0.53561518  0.61596391    -0.09230
C1084       C  0.37444820  0.55036457  0.58731908    -0.10790
C1085       C  0.37057891  0.55186550  0.90287342    -0.09230
C1086       C  0.37307643  0.53488596  0.87488396    -0.10790
C1087       C  0.23228488  0.53789398  0.87344405    -0.09230
C1088       C  0.25654014  0.56089387  0.89536164    -0.10790
C1089       C  0.45385842  0.80622615  0.90563341    -0.09230
C1090       C  0.46954072  0.82318570  0.87571613    -0.10790
C1091       C  0.46770787  0.68181764  0.87488726    -0.09230
C1092       C  0.44504139  0.68403584  0.89620650    -0.10790
C1093       C  0.46565639  0.67590951  0.62066877    -0.09230
C1094       C  0.44429480  0.67936700  0.59832595    -0.10790
C1095       C  0.46697323  0.81982657  0.62526156    -0.09230
C1096       C  0.45210716  0.80296495  0.59488559    -0.10790
O1097       O  0.74277423  0.17234526  0.45337936    -0.84140
C1098       C  0.93490299  0.28158483  0.05926683     1.15900
O1099       O  0.79815158  0.15472382  0.99769836    -1.31950
O1100       O  0.90688390  0.28409212  0.45431735    -0.85620
O1101       O  0.72207524  0.10966544  0.45331965    -0.86290
O1102       O  0.80723219  0.12134846  0.41418048    -0.75110
O1103       O  0.82423994  0.22985432  0.46127146    -0.97200
C1104       C  0.91742015  0.18111516  0.42463843     1.25950
O1105       O  0.85114145  0.12962518  0.49690668    -1.32090
Mn1106     Mn  0.84178826  0.16350279  0.04026983     1.82060
O1107       O  0.88485119  0.17413276  0.41422512    -0.74180
O1108       O  0.94933324  0.26397013  0.45449931    -0.83580
C1109       C  0.91709065  0.17802591  0.07001813     1.17030
C1110       C  0.93587384  0.28385594  0.44035740     1.11760
O1111       O  0.80804197  0.12014108  0.08041768    -0.75120
O1112       O  0.87604557  0.20740058  0.49806197    -1.28820
O1113       O  0.77671156  0.08099296  0.03453920    -0.94330
C1114       C  0.86659413  0.07068578  0.43687712     1.10470
Mn1115     Mn  0.93467594  0.22260519  0.49843493     1.48570
O1116       O  0.83356204  0.05690823  0.45167219    -0.83530
Mn1117     Mn  0.75061586  0.09804369  0.99780141     1.49560
O1118       O  0.74252412  0.17198471  0.04318005    -0.87410
C1119       C  0.82623387  0.22494749  0.42586881     1.23660
C1120       C  0.72318931  0.13881700  0.05791256     1.15720
Mn1121     Mn  0.84161886  0.16432437  0.45482892     1.80970
O1122       O  0.92450521  0.18056607  0.03479172    -0.92560
Mn1123     Mn  0.78303077  0.19800565  0.49854960     1.49260
C1124       C  0.72289880  0.13911453  0.43912058     1.12240
Mn1125     Mn  0.90767138  0.13893377  0.99629099     1.49930
C1126       C  0.86810199  0.06921922  0.05425341     1.15150
O1127       O  0.77616751  0.08109702  0.45955888    -0.98360
O1128       O  0.94851080  0.26194684  0.04478677    -0.88030
C1129       C  0.78148122  0.08876693  0.42426904     1.26430
O1130       O  0.92456652  0.18238829  0.45989149    -0.98750
O1131       O  0.90642071  0.28255049  0.04466926    -0.86150
O1132       O  0.89691434  0.09811425  0.03979654    -0.85760
O1133       O  0.72279793  0.10956408  0.04375584    -0.85780
Mn1134     Mn  0.86680916  0.25496167  0.99879793     1.47860
O1135       O  0.88491021  0.17194382  0.08048367    -0.74250
C1136       C  0.78235431  0.08786508  0.06977898     1.19480
O1137       O  0.83243793  0.19897887  0.41508831    -0.72990
O1138       O  0.83249804  0.19695511  0.08095235    -0.72600
Mn1139     Mn  0.80778171  0.07100683  0.49672832     1.51060
O1140       O  0.89596374  0.09995947  0.45016798    -0.84950
O1141       O  0.82400572  0.22865670  0.03568859    -0.92480
O1142       O  0.83424368  0.05632435  0.04157519    -0.87490
C1143       C  0.82540732  0.22249938  0.07082629     1.17270
C1144       C  0.85976819  0.47981841  0.15697518     0.04610
C1145       C  0.88356957  0.01721477  0.15107335     0.04600
C1146       C  0.68388949  0.47912319  0.15014256     0.04610
C1147       C  0.70204627  0.01740728  0.14673406     0.04600
C1148       C  0.86216572  0.47497195  0.34912639     0.04610
C1149       C  0.87641558  0.01270800  0.34312951     0.04600
C1150       C  0.67984439  0.47510412  0.35304371     0.04610
C1151       C  0.70053836  0.01400507  0.34777995     0.04600
C1152       C  0.83382980  0.30116185  0.14889021     0.04610
C1153       C  0.81483971  0.32076130  0.15088239     0.04600
C1154       C  0.66147950  0.12966973  0.15824138     0.04610
C1155       C  0.63941133  0.14616766  0.15708946     0.04600
C1156       C  0.81597820  0.32685064  0.35180564     0.04610
C1157       C  0.83569565  0.30777327  0.35027381     0.04600
C1158       C  0.66543144  0.13426135  0.33744306     0.04610
C1159       C  0.64561076  0.15308643  0.33760327     0.04600
C1160       C  0.83281727  0.39680927  0.22833427     0.04610
C1161       C  0.84082283  0.40193912  0.26780336     0.04600
C1162       C  0.52768246  0.18536612  0.14519091     0.04610
C1163       C  0.98598705  0.16498435  0.14804983     0.04600
C1164       C  0.52714140  0.35921257  0.16077683     0.04570
C1165       C  0.48847438  0.34082956  0.16088487     0.04600
C1166       C  0.52857603  0.36432343  0.34109641     0.04610
C1167       C  0.48999313  0.34415351  0.34056431     0.04600
C1168       C  0.99032746  0.17202007  0.34971475     0.04610
C1169       C  0.52592222  0.18903369  0.34944502     0.04600
C1170       C  0.61031781  0.41752909  0.26828384     0.04610
C1171       C  0.61351635  0.41503635  0.22838149     0.04600
C1172       C  0.58468928  0.17278847  0.23004850     0.04610
C1173       C  0.58736344  0.17998932  0.26971393     0.04600
C1174       C  0.93698521  0.08979719  0.23231085     0.04610
C1175       C  0.93457424  0.09523266  0.27178166     0.04600
C1176       C  0.90454498  0.31250295  0.23167951     0.04610
C1177       C  0.90458298  0.31019339  0.27196772     0.04600
C1178       C  0.69462253  0.07848592  0.22981531     0.04610
C1179       C  0.69909390  0.08192856  0.26993591     0.04600
O1180       O  0.68104921  0.22870815  0.04504612    -0.84140
C1181       C  0.79463009  0.42274038  0.44565587     1.15900
O1182       O  0.66421226  0.28442714  0.50094087    -1.31950
O1183       O  0.79261302  0.39267063  0.04970573    -0.85620
O1184       O  0.61855049  0.20868142  0.04309354    -0.86290
O1185       O  0.62951780  0.29396818  0.08243283    -0.75110
O1186       O  0.73865013  0.31035154  0.04007184    -0.97200
C1187       C  0.68983230  0.40417675  0.07462305     1.25950
O1188       O  0.63909129  0.33708320  0.50111167    -1.32090
Mn1189     Mn  0.67408279  0.32860363  0.45878738     1.82060
O1190       O  0.68235545  0.37136804  0.08465453    -0.74180
O1191       O  0.77361371  0.43601505  0.04756719    -0.83580
C1192       C  0.69024084  0.40459594  0.42988757     1.17030
C1193       C  0.79265952  0.42207614  0.06269678     1.11760
O1194       O  0.63151357  0.29520094  0.41737804    -0.75120
O1195       O  0.71699564  0.36221400  0.50250933    -1.28820
O1196       O  0.59099189  0.26311180  0.46200901    -0.94330
C1197       C  0.58030983  0.35371314  0.05931168     1.10470
Mn1198     Mn  0.73373867  0.42210504  0.00245362     1.48570
O1199       O  0.56690700  0.32084189  0.04398136    -0.83530
Mn1200     Mn  0.60749263  0.23677542  0.49925578     1.49560
O1201       O  0.68270502  0.23002840  0.45485826    -0.87410
C1202       C  0.73253161  0.31175032  0.07523223     1.23660
C1203       C  0.64969967  0.21047176  0.43971404     1.15720
Mn1204     Mn  0.67376242  0.32865482  0.04370368     1.80970
O1205       O  0.69144618  0.41103812  0.46518789    -0.92560
Mn1206     Mn  0.70848499  0.27017945  0.00123539     1.49260
C1207       C  0.64735584  0.20862218  0.05808599     1.12240
Mn1208     Mn  0.64845336  0.39385908  0.50186787     1.49930
C1209       C  0.58066937  0.35426916  0.44119522     1.15150
O1210       O  0.59134299  0.26384079  0.03521020    -0.98360
O1211       O  0.77364381  0.43561536  0.45817501    -0.88030
C1212       C  0.59758644  0.26837085  0.07064965     1.26430
O1213       O  0.69219122  0.41189954  0.03940978    -0.98750
O1214       O  0.79453501  0.39378209  0.46017962    -0.86150
O1215       O  0.60918667  0.38320476  0.45620001    -0.85760
O1216       O  0.62006506  0.20951452  0.45356600    -0.85780
Mn1217     Mn  0.76448985  0.35288515  0.50369132     1.47860
O1218       O  0.68378737  0.37243172  0.41886853    -0.74250
C1219       C  0.59887811  0.26927489  0.42688900     1.19480
O1220       O  0.70666092  0.31847167  0.08497292    -0.72990
O1221       O  0.70890759  0.32030026  0.41907817    -0.72600
Mn1222     Mn  0.58201405  0.29573535  0.99842925     1.51060
O1223       O  0.60940850  0.38331204  0.04606919    -0.84950
O1224       O  0.73967007  0.31132763  0.46511208    -0.92480
O1225       O  0.56689492  0.32068637  0.45484272    -0.87490
C1226       C  0.73479725  0.31391163  0.42982972     1.17270
C1227       C  0.56056325  0.18907719  0.29031756    -0.12390
C1228       C  0.54673650  0.17464936  0.32621911    -0.27570
H1229       H  0.55345804  0.20914272  0.27677704     0.16630
H1230       H  0.55339468  0.15444826  0.34019221     0.17210
C1231       C  0.96060480  0.13254778  0.29098888    -0.12390
C1232       C  0.96889100  0.13494836  0.32974249    -0.27570
H1233       H  0.97217357  0.15868307  0.27374924     0.16630
H1234       H  0.95712567  0.10953957  0.34816590     0.17210
C1235       C  0.54928381  0.22118698  0.37502402    -0.09230
C1236       C  0.57168741  0.24515923  0.39751468    -0.10790
C1237       C  0.55111984  0.38938708  0.30770019    -0.12390
C1238       C  0.57896675  0.38567883  0.29064293    -0.27570
H1239       H  0.54724099  0.41325206  0.29981186     0.16630
H1240       H  0.58258727  0.36161790  0.29843961     0.17210
C1241       C  0.96745392  0.34275124  0.30493729    -0.12390
C1242       C  0.93571481  0.31027982  0.29513876    -0.27570
H1243       H  0.97482866  0.36895953  0.28916098     0.16630
H1244       H  0.92833625  0.28448131  0.31177801     0.17210
C1245       C  0.54912374  0.36287936  0.37600017    -0.09230
C1246       C  0.56366599  0.35965848  0.40603546    -0.10790
C1247       C  0.55024295  0.38100697  0.19592819    -0.12390
C1248       C  0.58425753  0.38411449  0.20339921    -0.27570
H1249       H  0.54080162  0.39690210  0.21398525     0.16630
H1250       H  0.59409808  0.36899518  0.18460146     0.17210
C1251       C  0.96550531  0.34222055  0.19507622    -0.12390
C1252       C  0.93430516  0.31072544  0.20766439    -0.27570
H1253       H  0.97295688  0.36963477  0.20797294     0.16630
H1254       H  0.92663236  0.28345725  0.19418630     0.17210
C1255       C  0.54711947  0.35871198  0.12488955    -0.09230
C1256       C  0.56221253  0.35723393  0.09453006    -0.10790
C1257       C  0.55344287  0.17542531  0.16704835    -0.12390
C1258       C  0.55216025  0.17080877  0.20660187    -0.27570
H1259       H  0.57821925  0.17921226  0.15083345     0.16630
H1260       H  0.52830923  0.16959087  0.22234043     0.17210
C1261       C  0.96016654  0.13060065  0.17216314    -0.12390
C1262       C  0.96769602  0.12115723  0.20807513    -0.27570
H1263       H  0.93115884  0.11392977  0.16099688     0.16630
H1264       H  0.99489004  0.13887554  0.22229083     0.17210
C1265       C  0.56940947  0.24262181  0.09764856    -0.09230
C1266       C  0.54744779  0.21718685  0.11869100    -0.10790
C1267       C  0.62358688  0.15344796  0.30230145    -0.12390
C1268       C  0.61905763  0.18341835  0.29473451    -0.27570
H1269       H  0.60835274  0.12790106  0.28435868     0.16630
H1270       H  0.63333845  0.20852201  0.31350531     0.17210
C1271       C  0.66711403  0.11298799  0.30216171    -0.12390
C1272       C  0.69939640  0.11306040  0.29311437    -0.27570
H1273       H  0.64104373  0.09421612  0.28617237     0.16630
H1274       H  0.72502493  0.13093272  0.31026416     0.17210
C1275       C  0.64488094  0.17287869  0.37361847    -0.09230
C1276       C  0.64604640  0.18917913  0.40412062    -0.10790
C1277       C  0.82459845  0.36160083  0.32839031    -0.12390
C1278       C  0.83960643  0.37004594  0.29167535    -0.27570
H1279       H  0.81371867  0.37909779  0.34069677     0.16630
H1280       H  0.84693012  0.35099951  0.27677549     0.17210
C1281       C  0.86980708  0.29975146  0.29519432    -0.12390
C1282       C  0.87016732  0.32075299  0.32598000    -0.27570
H1283       H  0.84354847  0.27400701  0.28719630     0.16630
H1284       H  0.89562228  0.34755367  0.33314787     0.17210
C1285       C  0.78481026  0.31550673  0.37926307    -0.09230
C1286       C  0.76023770  0.31213412  0.40168881    -0.10790
C1287       C  0.61332000  0.14243495  0.18987021    -0.12390
C1288       C  0.61697014  0.17342474  0.20831528    -0.27570
H1289       H  0.58859192  0.11468565  0.19556605     0.16630
H1290       H  0.64197527  0.20106113  0.20277528     0.17210
C1291       C  0.69436594  0.10902347  0.20542713    -0.12390
C1292       C  0.66187615  0.10720564  0.19322976    -0.27570
H1293       H  0.72106315  0.12903506  0.19118271     0.16630
H1294       H  0.63508086  0.08715074  0.20719121     0.17210
C1295       C  0.63977206  0.16759392  0.12217310    -0.09230
C1296       C  0.64194813  0.18542075  0.09253096    -0.10790
C1297       C  0.83104360  0.35729788  0.17210910    -0.12390
C1298       C  0.82008162  0.35935232  0.20902814    -0.27570
H1299       H  0.85051926  0.38304167  0.15604405     0.16630
H1300       H  0.80094197  0.33325081  0.22479824     0.17210
C1301       C  0.86989939  0.31271315  0.17031625    -0.12390
C1302       C  0.87098167  0.31017726  0.21000378    -0.27570
H1303       H  0.89407631  0.31725859  0.15243962     0.16630
H1304       H  0.84550152  0.30415151  0.22631345     0.17210
C1305       C  0.75720126  0.30916406  0.10431179    -0.09230
C1306       C  0.78196086  0.31149342  0.12618656    -0.10790
C1307       C  0.68707720  0.03383187  0.32100833    -0.12390
C1308       C  0.71009552  0.05788063  0.29315019    -0.27570
H1309       H  0.65825906  0.02889041  0.32438850     0.16630
H1310       H  0.73821723  0.06135698  0.28843429     0.17210
C1311       C  0.64439926  0.44931968  0.33100870    -0.12390
C1312       C  0.64188613  0.44955901  0.29125278    -0.27570
H1313       H  0.62250886  0.42563400  0.34778066     0.16630
H1314       H  0.66537954  0.47248841  0.27526706     0.17210
C1315       C  0.69124478  0.45535342  0.38061359    -0.09230
C1316       C  0.69365436  0.43295903  0.40222925    -0.10790
C1317       C  0.90293352  0.06706656  0.29692897    -0.12390
C1318       C  0.89926575  0.03335336  0.30746686    -0.27570
H1319       H  0.88702603  0.07787292  0.31292473     0.16630
H1320       H  0.91553208  0.02268181  0.29196425     0.17210
C1321       C  0.84643037  0.43709788  0.28822029    -0.12390
C1322       C  0.86778881  0.45031810  0.32113799    -0.27570
H1323       H  0.83015441  0.45026623  0.27813524     0.16630
H1324       H  0.88364182  0.43696637  0.33188055     0.17210
C1325       C  0.83954267  0.45627968  0.38414204    -0.09230
C1326       C  0.81950937  0.44144036  0.41266596    -0.10790
C1327       C  0.69095375  0.04176421  0.16895965    -0.12390
C1328       C  0.69700732  0.04735774  0.20823839    -0.27570
H1329       H  0.68331618  0.05947551  0.15145206     0.16630
H1330       H  0.70579429  0.02963105  0.22412438     0.17210
C1331       C  0.64942023  0.44070066  0.20744394    -0.12390
C1332       C  0.64935042  0.45912236  0.17452815    -0.27570
H1333       H  0.67594256  0.44333299  0.21834084     0.16630
H1334       H  0.62323282  0.45768317  0.16404566     0.17210
C1335       C  0.69207965  0.45501563  0.12509101    -0.09230
C1336       C  0.69314695  0.43188000  0.10336785    -0.10790
C1337       C  0.83051236  0.42552016  0.20296655    -0.12390
C1338       C  0.86112202  0.45893726  0.19291890    -0.27570
H1339       H  0.80410776  0.41529802  0.18639169     0.16630
H1340       H  0.88777839  0.46908311  0.20897357     0.17210
C1341       C  0.91422831  0.04156470  0.17890254    -0.12390
C1342       C  0.90676400  0.05495034  0.21200525    -0.27570
H1343       H  0.94326284  0.05456535  0.16793105     0.16630
H1344       H  0.87748074  0.04220413  0.22229565     0.17210
C1345       C  0.83442120  0.45770448  0.12493653    -0.09230
C1346       C  0.81529275  0.44071137  0.09674020    -0.10790
C1347       C  0.82288545  0.26978255  0.12203478    -0.09230
C1348       C  0.82119211  0.24600554  0.09953457    -0.10790
C1349       C  0.70142094  0.13447296  0.09333438    -0.09230
C1350       C  0.68406144  0.13199574  0.12344916    -0.10790
C1351       C  0.70132156  0.13500315  0.40387301    -0.09230
C1352       C  0.68516414  0.13366873  0.37331545    -0.10790
C1353       C  0.82654054  0.27535390  0.37578474    -0.09230
C1354       C  0.82415743  0.25055158  0.39762073    -0.10790
C1355       C  0.75783094  0.05997976  0.09790285    -0.09230
C1356       C  0.73339029  0.03785784  0.11985035    -0.10790
C1357       C  0.87975524  0.03599558  0.11601170    -0.09230
C1358       C  0.87438472  0.05066297  0.08737803    -0.10790
C1359       C  0.87069199  0.05201198  0.40291626    -0.09230
C1360       C  0.87305762  0.03501439  0.37486416    -0.10790
C1361       C  0.73281135  0.03835357  0.37310614    -0.09230
C1362       C  0.75685948  0.06121500  0.39531982    -0.10790
C1363       C  0.95390092  0.30624635  0.40566908    -0.09230
C1364       C  0.96952736  0.32317363  0.37571625    -0.10790
C1365       C  0.96779075  0.18194663  0.37493558    -0.09230
C1366       C  0.94516149  0.18417804  0.39630322    -0.10790
C1367       C  0.96561993  0.17603357  0.12066962    -0.09230
C1368       C  0.94423707  0.17948297  0.09834503    -0.10790
C1369       C  0.96693493  0.31984326  0.12532518    -0.09230
C1370       C  0.95209003  0.30304203  0.09491869    -0.10790
O1371       O  0.74280422  0.17255639  0.95281589    -0.84140
C1372       C  0.93501631  0.28157133  0.55930326     1.15900
O1373       O  0.79827090  0.15458163  0.49784939    -1.31950
O1374       O  0.90704053  0.28404461  0.95409932    -0.85620
O1375       O  0.72181514  0.10982357  0.95317227    -0.86290
O1376       O  0.80704818  0.12112269  0.91423188    -0.75110
O1377       O  0.82441258  0.22991958  0.96087259    -0.97200
C1378       C  0.91734611  0.18092214  0.92484614     1.25950
O1379       O  0.85088085  0.12957473  0.99707070    -1.32090
Mn1380     Mn  0.84199759  0.16337631  0.54028429     1.82060
O1381       O  0.88477945  0.17384582  0.91430178    -0.74180
O1382       O  0.94940837  0.26383081  0.95450948    -0.83580
C1383       C  0.91740580  0.17804791  0.56986305     1.17030
C1384       C  0.93601149  0.28372365  0.94023501     1.11760
O1385       O  0.80837402  0.11987879  0.58032456    -0.75120
O1386       O  0.87596233  0.20739240  0.99797554    -1.28820
O1387       O  0.77702638  0.08079124  0.53439456    -0.94330
C1388       C  0.86621747  0.07050857  0.93713071     1.10470
Mn1389     Mn  0.93455613  0.22250268  0.99854393     1.48570
O1390       O  0.83319037  0.05675579  0.95196174    -0.83530
Mn1391     Mn  0.75084024  0.09781360  0.49779558     1.49560
O1392       O  0.74250054  0.17137981  0.54375235    -0.87410
C1393       C  0.82645648  0.22492780  0.92551058     1.23660
C1394       C  0.72310300  0.13808735  0.55823306     1.15720
Mn1395     Mn  0.84150920  0.16421510  0.95479394     1.80970
O1396       O  0.92479983  0.18067001  0.53462011    -0.92560
Mn1397     Mn  0.78308010  0.19827693  0.99805522     1.49260
C1398       C  0.72270001  0.13925106  0.93877482     1.12240
Mn1399     Mn  0.90797624  0.13908924  0.49605429     1.49930
C1400       C  0.86850919  0.06930116  0.55395463     1.15150
O1401       O  0.77589115  0.08111999  0.95975828    -0.98360
O1402       O  0.94864413  0.26199314  0.54471941    -0.88030
C1403       C  0.78119865  0.08862698  0.92445118     1.26430
O1404       O  0.92438244  0.18221642  0.96011654    -0.98750
O1405       O  0.90644664  0.28246305  0.54485740    -0.86150
O1406       O  0.89730031  0.09825339  0.53953973    -0.85760
O1407       O  0.72281697  0.10896755  0.54384235    -0.85780
Mn1408     Mn  0.86674022  0.25487624  0.49909161     1.47860
O1409       O  0.88519799  0.17184337  0.58038045    -0.74250
C1410       C  0.78272435  0.08760278  0.56963712     1.19480
O1411       O  0.83251221  0.19883426  0.91485287    -0.72990
O1412       O  0.83266542  0.19665920  0.58117473    -0.72600
Mn1413     Mn  0.80743556  0.07100323  0.99698614     1.51060
O1414       O  0.89560822  0.09976441  0.95042374    -0.84950
O1415       O  0.82402417  0.22840832  0.53609222    -0.92480
O1416       O  0.83465849  0.05633840  0.54123088    -0.87490
C1417       C  0.82550508  0.22218990  0.57119409     1.17270
C1418       C  0.85961245  0.47946931  0.65660339     0.04610
C1419       C  0.88370803  0.01738524  0.65102104     0.04600
C1420       C  0.68317649  0.47873035  0.64937616     0.04610
C1421       C  0.70289693  0.01752763  0.64705588     0.04600
C1422       C  0.86293194  0.47528311  0.84881265     0.04610
C1423       C  0.87629798  0.01276848  0.84323474     0.04600
C1424       C  0.67987957  0.47568646  0.85254711     0.04610
C1425       C  0.69975761  0.01362010  0.84862878     0.04600
C1426       C  0.83362609  0.30084789  0.64909504     0.04610
C1427       C  0.81463088  0.32045075  0.65071375     0.04600
C1428       C  0.66302158  0.13068147  0.65942744     0.04610
C1429       C  0.64324643  0.14957444  0.65925984     0.04600
C1430       C  0.81697119  0.32726040  0.85176897     0.04610
C1431       C  0.83650782  0.30802736  0.85007526     0.04600
C1432       C  0.66499672  0.13461310  0.83711193     0.04610
C1433       C  0.64581785  0.15412306  0.83708840     0.04600
C1434       C  0.83317768  0.39672216  0.72817066     0.04610
C1435       C  0.84144162  0.40206927  0.76759032     0.04600
C1436       C  0.52458826  0.18451137  0.64965874     0.04610
C1437       C  0.98621984  0.16512416  0.64819327     0.04600
C1438       C  0.52606712  0.35872958  0.66102473     0.04570
C1439       C  0.48741143  0.34050724  0.66089181     0.04600
C1440       C  0.52848728  0.36453062  0.84099217     0.04610
C1441       C  0.48999049  0.34286898  0.84049654     0.04600
C1442       C  0.99030320  0.17177181  0.85014906     0.04610
C1443       C  0.52920853  0.19250456  0.84775653     0.04600
C1444       C  0.60959790  0.41839412  0.76802846     0.04610
C1445       C  0.61271114  0.41593600  0.72811972     0.04600
C1446       C  0.59456149  0.18675582  0.72740280     0.04610
C1447       C  0.59368178  0.18776118  0.76772239     0.04600
C1448       C  0.93707937  0.08986471  0.73241223     0.04610
C1449       C  0.93466349  0.09523734  0.77190672     0.04600
C1450       C  0.90449128  0.31189224  0.73143492     0.04610
C1451       C  0.90492015  0.30978913  0.77170433     0.04600
C1452       C  0.69443094  0.07798759  0.73029082     0.04610
C1453       C  0.69791777  0.08087757  0.77048401     0.04600
O1454       O  0.68105725  0.22803019  0.54496779    -0.84140
C1455       C  0.79600389  0.42348249  0.94572513     1.15900
O1456       O  0.66535060  0.28581963  0.00029176    -1.31950
O1457       O  0.79174677  0.39203264  0.54957871    -0.85620
O1458       O  0.61841381  0.20747035  0.54403852    -0.86290
O1459       O  0.62879984  0.29239650  0.58356179    -0.75110
O1460       O  0.73798976  0.30962106  0.54000515    -0.97200
C1461       C  0.68868458  0.40292692  0.57492304     1.25950
O1462       O  0.64063385  0.33894601  0.00024859    -1.32090
Mn1463     Mn  0.67585559  0.33032908  0.95831211     1.82060
O1464       O  0.68135236  0.37020040  0.58518665    -0.74180
O1465       O  0.77239384  0.43509406  0.54768233    -0.83580
C1466       C  0.69194610  0.40627577  0.92952405     1.17030
C1467       C  0.79171905  0.42138503  0.56265883     1.11760
O1468       O  0.63380194  0.29758008  0.91647643    -0.75120
O1469       O  0.71835365  0.36346892  0.00233697    -1.28820
O1470       O  0.59268552  0.26539997  0.96056362    -0.94330
C1471       C  0.57902014  0.35209022  0.56011322     1.10470
Mn1472     Mn  0.73227353  0.42081768  0.50264716     1.48570
O1473       O  0.56565585  0.31904019  0.54524611    -0.83530
Mn1474     Mn  0.60856203  0.23856936  0.99798158     1.49560
O1475       O  0.68343754  0.23081787  0.95477199    -0.87410
C1476       C  0.73204544  0.31098009  0.57522805     1.23660
C1477       C  0.65055140  0.21162646  0.93923550     1.15720
Mn1478     Mn  0.67270961  0.32730126  0.54430993     1.80970
O1479       O  0.69310164  0.41277164  0.96481946    -0.92560
Mn1480     Mn  0.70782714  0.26941134  0.50121818     1.49260
C1481       C  0.64761160  0.20788892  0.55851183     1.12240
Mn1482     Mn  0.65004097  0.39570599  0.00139796     1.49930
C1483       C  0.58230011  0.35661728  0.94047897     1.15150
O1484       O  0.58976356  0.26147935  0.53711677    -0.98360
O1485       O  0.77513847  0.43654770  0.95812401    -0.88030
C1486       C  0.59670414  0.26634633  0.57258274     1.26430
O1487       O  0.69076242  0.41034584  0.53967313    -0.98750
O1488       O  0.79579753  0.39450245  0.96036359    -0.86150
O1489       O  0.61085878  0.38543659  0.95562679    -0.85760
O1490       O  0.62097569  0.21103968  0.95264060    -0.85780
Mn1491     Mn  0.76550991  0.35362626  0.00380596     1.47860
O1492       O  0.68600602  0.37429115  0.91853862    -0.74250
C1493       C  0.60098609  0.27190567  0.92558464     1.19480
O1494       O  0.70611996  0.31752741  0.58523351    -0.72990
O1495       O  0.71073000  0.32181884  0.91897059    -0.72600
Mn1496     Mn  0.58048332  0.29357719  0.49987249     1.51060
O1497       O  0.60796055  0.38161051  0.54654020    -0.84950
O1498       O  0.74076205  0.31205187  0.96521056    -0.92480
O1499       O  0.56853719  0.32296114  0.95376376    -0.87490
C1500       C  0.73614206  0.31480043  0.92989666     1.17270
C1501       C  0.56600823  0.19569519  0.78868135    -0.12390
C1502       C  0.55086390  0.17939000  0.82367506    -0.27570
H1503       H  0.55897766  0.21622070  0.77631315     0.16630
H1504       H  0.55655758  0.15801895  0.83632398     0.17210
C1505       C  0.96091674  0.13242306  0.79125823    -0.12390
C1506       C  0.96865042  0.13473596  0.83015172    -0.27570
H1507       H  0.97311328  0.15859302  0.77402052     0.16630
H1508       H  0.95619675  0.10935683  0.84864585     0.17210
C1509       C  0.55193917  0.22483289  0.87309135    -0.09230
C1510       C  0.57404091  0.24851961  0.89587111    -0.10790
C1511       C  0.55042727  0.38962571  0.80742211    -0.12390
C1512       C  0.57851913  0.38636179  0.79036138    -0.27570
H1513       H  0.54612716  0.41324765  0.79963080     0.16630
H1514       H  0.58258473  0.36257962  0.79821574     0.17210
C1515       C  0.96762065  0.34268637  0.80483576    -0.12390
C1516       C  0.93628563  0.31005536  0.79456776    -0.27570
H1517       H  0.97459455  0.36902175  0.78954862     0.16630
H1518       H  0.92929351  0.28412770  0.81076043     0.17210
C1519       C  0.54973359  0.36439453  0.87581642    -0.09230
C1520       C  0.56505180  0.36205471  0.90562905    -0.10790
C1521       C  0.54915072  0.38074763  0.69613630    -0.12390
C1522       C  0.58359534  0.38471233  0.70324396    -0.27570
H1523       H  0.53933247  0.39619774  0.71439493     0.16630
H1524       H  0.59378563  0.37000942  0.68428441     0.17210
C1525       C  0.96565770  0.34173628  0.69524664    -0.12390
C1526       C  0.93411049  0.31021265  0.70711348    -0.27570
H1527       H  0.97339654  0.36892362  0.70891039     0.16630
H1528       H  0.92610138  0.28319246  0.69283661     0.17210
C1529       C  0.54603285  0.35787436  0.62535215    -0.09230
C1530       C  0.56104300  0.35598702  0.59515492    -0.10790
C1531       C  0.54697433  0.17285585  0.67467740    -0.12390
C1532       C  0.56978213  0.19615970  0.70318514    -0.27570
H1533       H  0.54420075  0.14500646  0.67025353     0.16630
H1534       H  0.57074605  0.22309784  0.70843564     0.17210
C1535       C  0.96032713  0.13081506  0.67238392    -0.12390
C1536       C  0.96785662  0.12120426  0.70821297    -0.27570
H1537       H  0.93127159  0.11428025  0.66130186     0.16630
H1538       H  0.99511789  0.13870661  0.72238034     0.17210
C1539       C  0.56912708  0.24074792  0.60080793    -0.09230
C1540       C  0.54711480  0.21628762  0.62313467    -0.10790
C1541       C  0.62469358  0.15584756  0.80153648    -0.12390
C1542       C  0.62353374  0.18764730  0.79321454    -0.27570
H1543       H  0.60770384  0.13027846  0.78412767     0.16630
H1544       H  0.63983961  0.21276832  0.81153126     0.17210
C1545       C  0.66665460  0.11333969  0.80179269    -0.12390
C1546       C  0.69851683  0.11217416  0.79370636    -0.27570
H1547       H  0.64079048  0.09559954  0.78501716     0.16630
H1548       H  0.72387083  0.12920925  0.81156270     0.17210
C1549       C  0.64541961  0.17402226  0.87311023    -0.09230
C1550       C  0.64690923  0.19036620  0.90366198    -0.10790
C1551       C  0.82551969  0.36194613  0.82827974    -0.12390
C1552       C  0.84047339  0.37034075  0.79153875    -0.27570
H1553       H  0.81458934  0.37941588  0.84054433     0.16630
H1554       H  0.84789938  0.35135301  0.77666965     0.17210
C1555       C  0.87036309  0.29939144  0.79523960    -0.12390
C1556       C  0.87083049  0.32082552  0.82562429    -0.27570
H1557       H  0.84417424  0.27335468  0.78776851     0.16630
H1558       H  0.89617089  0.34792610  0.83218008     0.17210
C1559       C  0.78596786  0.31603640  0.87938468    -0.09230
C1560       C  0.76151317  0.31276796  0.90189641    -0.10790
C1561       C  0.62213654  0.15149160  0.69450794    -0.12390
C1562       C  0.62486043  0.18476817  0.70488642    -0.27570
H1563       H  0.60158540  0.12526307  0.70907673     0.16630
H1564       H  0.64491278  0.21051406  0.68916218     0.17210
C1565       C  0.69525084  0.10903855  0.70604048    -0.12390
C1566       C  0.66321303  0.10839134  0.69452531    -0.27570
H1567       H  0.72190885  0.12807685  0.69114116     0.16630
H1568       H  0.63638777  0.08907158  0.70890672     0.17210
C1569       C  0.64215192  0.16904675  0.62340856    -0.09230
C1570       C  0.64309998  0.18550346  0.59320700    -0.10790
C1571       C  0.83074292  0.35710724  0.67168928    -0.12390
C1572       C  0.82058656  0.35922663  0.70896345    -0.27570
H1573       H  0.84935641  0.38284306  0.65513947     0.16630
H1574       H  0.80215270  0.33311329  0.72508206     0.17210
C1575       C  0.86976192  0.31275621  0.67047992    -0.12390
C1576       C  0.87067835  0.30927425  0.71005669    -0.27570
H1577       H  0.89425060  0.31839643  0.65251969     0.16630
H1578       H  0.84496203  0.30232750  0.72642433     0.17210
C1579       C  0.75693957  0.30852747  0.60409767    -0.09230
C1580       C  0.78177540  0.31098866  0.62592757    -0.10790
C1581       C  0.68613151  0.03348587  0.82224139    -0.12390
C1582       C  0.70866607  0.05662482  0.79359676    -0.27570
H1583       H  0.65774701  0.02943007  0.82661565     0.16630
H1584       H  0.73624134  0.05907239  0.78798863     0.17210
C1585       C  0.64435319  0.44971141  0.83064605    -0.12390
C1586       C  0.64111737  0.45050659  0.79099608    -0.27570
H1587       H  0.62301276  0.42549142  0.84726898     0.16630
H1588       H  0.66403755  0.47392873  0.77494409     0.17210
C1589       C  0.69162273  0.45616607  0.88002678    -0.09230
C1590       C  0.69471138  0.43426969  0.90177093    -0.10790
C1591       C  0.90288979  0.06709553  0.79695270    -0.12390
C1592       C  0.89924462  0.03343000  0.80762712    -0.27570
H1593       H  0.88691065  0.07789720  0.81281944     0.16630
H1594       H  0.91560984  0.02279439  0.79226037     0.17210
C1595       C  0.84705820  0.43727826  0.78793711    -0.12390
C1596       C  0.86853762  0.45063354  0.82077557    -0.27570
H1597       H  0.83067556  0.45034765  0.77790342     0.16630
H1598       H  0.88448792  0.43736642  0.83146449     0.17210
C1599       C  0.84063530  0.45664855  0.88398967    -0.09230
C1600       C  0.82081203  0.44195377  0.91266197    -0.10790
C1601       C  0.69223380  0.04234101  0.66907042    -0.12390
C1602       C  0.69634556  0.04660113  0.70865910    -0.27570
H1603       H  0.68669960  0.06148009  0.65137798     0.16630
H1604       H  0.70317604  0.02754717  0.72484135     0.17210
C1605       C  0.64860637  0.44175254  0.70723947    -0.12390
C1606       C  0.64836965  0.45871137  0.67328986    -0.27570
H1607       H  0.67536843  0.44570038  0.71906251     0.16630
H1608       H  0.62198031  0.45574541  0.66152527     0.17210
C1609       C  0.69146371  0.45455747  0.62457523    -0.09230
C1610       C  0.69230575  0.43098516  0.60335927    -0.10790
C1611       C  0.83062337  0.42528483  0.70278038    -0.12390
C1612       C  0.86115890  0.45864734  0.69249651    -0.27570
H1613       H  0.80411797  0.41498036  0.68637473     0.16630
H1614       H  0.88791075  0.46883604  0.70838003     0.17210
C1615       C  0.91433275  0.04176014  0.67887507    -0.12390
C1616       C  0.90684566  0.05507324  0.71202533    -0.27570
H1617       H  0.94337185  0.05479733  0.66791147     0.16630
H1618       H  0.87756007  0.04228988  0.72231741     0.17210
C1619       C  0.83401810  0.45733826  0.62464143    -0.09230
C1620       C  0.81462937  0.44024097  0.59657189    -0.10790
C1621       C  0.82281050  0.26933897  0.62245686    -0.09230
C1622       C  0.82122602  0.24557524  0.60000751    -0.10790
C1623       C  0.70116335  0.13343027  0.59365546    -0.09230
C1624       C  0.68408045  0.13120079  0.62394123    -0.10790
C1625       C  0.70084428  0.13501508  0.90362142    -0.09230
C1626       C  0.68450774  0.13370474  0.87314830    -0.10790
C1627       C  0.82718095  0.27548904  0.87543745    -0.09230
C1628       C  0.82459980  0.25057326  0.89719838    -0.10790
C1629       C  0.75833128  0.05963111  0.59773856    -0.09230
C1630       C  0.73401605  0.03759146  0.61983470    -0.10790
C1631       C  0.88003280  0.03611935  0.61584083    -0.09230
C1632       C  0.87477666  0.05077229  0.58711943    -0.10790
C1633       C  0.87030466  0.05187535  0.90309508    -0.09230
C1634       C  0.87279042  0.03501177  0.87496604    -0.10790
C1635       C  0.73219781  0.03796017  0.87374297    -0.09230
C1636       C  0.75645093  0.06096407  0.89567417    -0.10790
C1637       C  0.95406029  0.30601977  0.90550261    -0.09230
C1638       C  0.96963583  0.32294463  0.87553234    -0.10790
C1639       C  0.96792190  0.18181281  0.87544298    -0.09230
C1640       C  0.94521246  0.18403476  0.89667511    -0.10790
C1641       C  0.96590906  0.17608581  0.62061427    -0.09230
C1642       C  0.94458197  0.17950952  0.59817145    -0.10790
C1643       C  0.96717829  0.31984530  0.62528631    -0.09230
C1644       C  0.95228963  0.30304992  0.59490167    -0.10790
O1645       O  0.74259751  0.67237622  0.45319158    -0.84140
C1646       C  0.93483578  0.78152309  0.05917234     1.15900
O1647       O  0.79813978  0.65455596  0.99760570    -1.31950
O1648       O  0.90678016  0.78408028  0.45438327    -0.85620
O1649       O  0.72179523  0.60967893  0.45323002    -0.86290
O1650       O  0.80696038  0.62115241  0.41420074    -0.75110
O1651       O  0.82416285  0.72982143  0.46118749    -0.97200
C1652       C  0.91723880  0.68100155  0.42458622     1.25950
O1653       O  0.85093010  0.62957204  0.49694826    -1.32090
Mn1654     Mn  0.84186599  0.66339187  0.04006403     1.82060
O1655       O  0.88464283  0.67395489  0.41418573    -0.74180
O1656       O  0.94917903  0.76389662  0.45447020    -0.83580
C1657       C  0.91723074  0.67805917  0.06969621     1.17030
C1658       C  0.93573470  0.78381306  0.44039107     1.11760
O1659       O  0.80826928  0.61995255  0.08011879    -0.75120
O1660       O  0.87588758  0.70735252  0.49801025    -1.28820
O1661       O  0.77690547  0.58077566  0.03424977    -0.94330
C1662       C  0.86629836  0.57058606  0.43694989     1.10470
Mn1663     Mn  0.93451635  0.72255012  0.49838703     1.48570
O1664       O  0.83327938  0.55682866  0.45178257    -0.83530
Mn1665     Mn  0.75070019  0.59779597  0.99760475     1.49560
O1666       O  0.74237359  0.67139141  0.04345012    -0.87410
C1667       C  0.82615760  0.72487309  0.42579739     1.23660
C1668       C  0.72303462  0.63812882  0.05801392     1.15720
Mn1669     Mn  0.84141739  0.66421426  0.45480825     1.80970
O1670       O  0.92465202  0.68065523  0.03446471    -0.92560
Mn1671     Mn  0.78289363  0.69802779  0.49839948     1.49260
C1672       C  0.72259104  0.63912503  0.43900015     1.12240
Mn1673     Mn  0.90788220  0.63907799  0.99590992     1.49930
C1674       C  0.86844566  0.56929937  0.05384714     1.15150
O1675       O  0.77594937  0.58108408  0.45971375    -0.98360
O1676       O  0.94847845  0.76195396  0.04459687    -0.88030
C1677       C  0.78119540  0.58861298  0.42441150     1.26430
O1678       O  0.92439020  0.68230994  0.45984496    -0.98750
O1679       O  0.90628598  0.78243075  0.04467861    -0.86150
O1680       O  0.89722334  0.59825802  0.03942080    -0.85760
O1681       O  0.72271991  0.60898600  0.04365433    -0.85780
Mn1682     Mn  0.86661823  0.75484854  0.99884621     1.47860
O1683       O  0.88503214  0.67188844  0.08018556    -0.74250
C1684       C  0.78263337  0.58765647  0.06948768     1.19480
O1685       O  0.83227375  0.69884336  0.41503948    -0.72990
O1686       O  0.83251233  0.69669015  0.08091345    -0.72600
Mn1687     Mn  0.80752951  0.57097337  0.49685139     1.51060
O1688       O  0.89568902  0.59986041  0.45019936    -0.84950
O1689       O  0.82386812  0.72838476  0.03578273    -0.92480
O1690       O  0.83459159  0.55631698  0.04110554    -0.87490
C1691       C  0.82534425  0.72220440  0.07089286     1.17270
C1692       C  0.85955408  0.97956097  0.15702461     0.04610
C1693       C  0.88377191  0.51747132  0.15098355     0.04600
C1694       C  0.68276119  0.97892834  0.14935790     0.04610
C1695       C  0.70316805  0.51759311  0.14730646     0.04600
C1696       C  0.86228413  0.97494117  0.34912897     0.04610
C1697       C  0.87626730  0.51274174  0.34316828     0.04600
C1698       C  0.68057526  0.97554693  0.35247474     0.04610
C1699       C  0.69967308  0.51357958  0.34869724     0.04600
C1700       C  0.83382363  0.80087923  0.14895801     0.04610
C1701       C  0.81483168  0.82046723  0.15098977     0.04600
C1702       C  0.66335522  0.63087685  0.15945451     0.04610
C1703       C  0.64354787  0.64973726  0.15935666     0.04600
C1704       C  0.81612990  0.82687136  0.35190024     0.04610
C1705       C  0.83573384  0.80769081  0.35022826     0.04600
C1706       C  0.66478286  0.63448280  0.33741897     0.04610
C1707       C  0.64529146  0.65369306  0.33741848     0.04600
C1708       C  0.83279446  0.89659492  0.22836862     0.04610
C1709       C  0.84086761  0.90181460  0.26782224     0.04600
C1710       C  0.52483167  0.68438648  0.14908979     0.04610
C1711       C  0.98594139  0.66507827  0.14800153     0.04600
C1712       C  0.52627252  0.85885560  0.16096112     0.04570
C1713       C  0.48761020  0.84050282  0.16072412     0.04600
C1714       C  0.52885351  0.86454418  0.34105040     0.04610
C1715       C  0.49028953  0.84408926  0.34042154     0.04600
C1716       C  0.99037050  0.67212410  0.34967908     0.04610
C1717       C  0.52896014  0.69246380  0.34856201     0.04600
C1718       C  0.61032036  0.91779549  0.26814311     0.04610
C1719       C  0.61290804  0.91529234  0.22815963     0.04600
C1720       C  0.59374742  0.68558263  0.22730672     0.04610
C1721       C  0.59147635  0.68509393  0.26761564     0.04600
C1722       C  0.93683900  0.58999755  0.23236634     0.04610
C1723       C  0.93438433  0.59538219  0.27184255     0.04600
C1724       C  0.90448012  0.81213563  0.23167107     0.04610
C1725       C  0.90451247  0.80982409  0.27194962     0.04600
C1726       C  0.69481989  0.57822110  0.23044095     0.04610
C1727       C  0.69811562  0.58113803  0.27065975     0.04600
O1728       O  0.68129087  0.72838123  0.04523272    -0.84140
C1729       C  0.79513595  0.92316165  0.44600968     1.15900
O1730       O  0.66472827  0.78512542  0.50117981    -1.31950
O1731       O  0.79209426  0.89234231  0.04992619    -0.85620
O1732       O  0.61866429  0.70786571  0.04411689    -0.86290
O1733       O  0.62922562  0.79295103  0.08382588    -0.75110
O1734       O  0.73835016  0.80995154  0.04036600    -0.97200
C1735       C  0.68906947  0.90345636  0.07513674     1.25950
O1736       O  0.63975125  0.83794076  0.50136377    -1.32090
Mn1737     Mn  0.67487297  0.82950691  0.45915076     1.82060
O1738       O  0.68180116  0.87075392  0.08541928    -0.74180
O1739       O  0.77280250  0.93546536  0.04795831    -0.83580
C1740       C  0.69100068  0.90549149  0.43016397     1.17030
C1741       C  0.79204223  0.92168616  0.06297174     1.11760
O1742       O  0.63256416  0.79658585  0.41775703    -0.75120
O1743       O  0.71758557  0.86286657  0.50292724    -1.28820
O1744       O  0.59182310  0.76434574  0.46219114    -0.94330
C1745       C  0.57952229  0.85276012  0.06017749     1.10470
Mn1746     Mn  0.73279579  0.92132074  0.00291499     1.48570
O1747       O  0.56619648  0.81968962  0.04542363    -0.83530
Mn1748     Mn  0.60797024  0.73760754  0.49927422     1.49560
O1749       O  0.68301054  0.73053558  0.45501936    -0.87410
C1750       C  0.73235580  0.81132181  0.07557937     1.23660
C1751       C  0.65004528  0.71124680  0.43967805     1.15720
Mn1752     Mn  0.67319460  0.82786134  0.04460303     1.80970
O1753       O  0.69215543  0.91195052  0.46546050    -0.92560
Mn1754     Mn  0.70819235  0.76978144  0.00151442     1.49260
C1755       C  0.64781113  0.70822452  0.05868644     1.12240
Mn1756     Mn  0.64910216  0.89470707  0.50205920     1.49930
C1757       C  0.58132666  0.85516790  0.44129251     1.15150
O1758       O  0.59029286  0.76215328  0.03729193    -0.98360
O1759       O  0.77423990  0.93614047  0.45854903    -0.88030
C1760       C  0.59716138  0.76690733  0.07276603     1.26430
O1761       O  0.69124077  0.91092008  0.03988415    -0.98750
O1762       O  0.79501250  0.89420207  0.46057049    -0.86150
O1763       O  0.60991045  0.88410407  0.45623253    -0.85760
O1764       O  0.62047587  0.71046434  0.45344894    -0.85780
Mn1765     Mn  0.76494197  0.85332387  0.50407488     1.47860
O1766       O  0.68475252  0.87338362  0.41922560    -0.74250
C1767       C  0.59985488  0.77090176  0.42717047     1.19480
O1768       O  0.70650068  0.81799023  0.08554282    -0.72990
O1769       O  0.70965179  0.82112392  0.41946080    -0.72600
Mn1770     Mn  0.58107150  0.79433671  0.00011424     1.51060
O1771       O  0.60843280  0.88228170  0.04655749    -0.84950
O1772       O  0.74015267  0.81177991  0.46547463    -0.92480
O1773       O  0.56752025  0.82162689  0.45505149    -0.87490
C1774       C  0.73533998  0.81443756  0.43019672     1.17270
C1775       C  0.56157521  0.69020516  0.28814943    -0.12390
C1776       C  0.55179092  0.67969585  0.32608041    -0.27570
H1777       H  0.54821151  0.70415338  0.27286072     0.16630
H1778       H  0.56450195  0.66580319  0.34266100     0.17210
C1779       C  0.96028210  0.63272698  0.29102792    -0.12390
C1780       C  0.96907518  0.63507968  0.32963436    -0.27570
H1781       H  0.97135810  0.65887967  0.27388342     0.16630
H1782       H  0.95786177  0.60960477  0.34790631     0.17210
C1783       C  0.55071670  0.72420277  0.37475233    -0.09230
C1784       C  0.57267193  0.74767971  0.39770067    -0.10790
C1785       C  0.55123671  0.88948804  0.30756273    -0.12390
C1786       C  0.57929998  0.88599838  0.29078671    -0.27570
H1787       H  0.54693307  0.91299489  0.29922857     0.16630
H1788       H  0.58338743  0.86232965  0.29909127     0.17210
C1789       C  0.96727231  0.84258961  0.30498823    -0.12390
C1790       C  0.93569154  0.81002490  0.29509954    -0.27570
H1791       H  0.97450360  0.86879191  0.28927352     0.16630
H1792       H  0.92843589  0.78422916  0.31168493     0.17210
C1793       C  0.54953275  0.86340395  0.37603267    -0.09230
C1794       C  0.56424449  0.86045148  0.40609404    -0.10790
C1795       C  0.54932421  0.88074314  0.19614883    -0.12390
C1796       C  0.58347549  0.88408778  0.20354486    -0.27570
H1797       H  0.53982671  0.89663788  0.21412646     0.16630
H1798       H  0.59330721  0.86890290  0.18483808     0.17210
C1799       C  0.96539769  0.84198724  0.19499914    -0.12390
C1800       C  0.93428276  0.81044101  0.20764350    -0.27570
H1801       H  0.97275511  0.86938933  0.20786205     0.16630
H1802       H  0.92670126  0.78317982  0.19420649     0.17210
C1803       C  0.54636396  0.85828729  0.12531871    -0.09230
C1804       C  0.56151500  0.85663463  0.09515374    -0.10790
C1805       C  0.54702712  0.67246853  0.17400301    -0.12390
C1806       C  0.56965640  0.69552477  0.20271755    -0.27570
H1807       H  0.54398692  0.64450476  0.16960251     0.16630
H1808       H  0.57085799  0.72256681  0.20808731     0.17210
C1809       C  0.96006417  0.63075824  0.17215793    -0.12390
C1810       C  0.96752714  0.62143723  0.20816853    -0.27570
H1811       H  0.93109675  0.61402619  0.16090606     0.16630
H1812       H  0.99466314  0.63928831  0.22244282     0.17210
C1813       C  0.56955188  0.74114653  0.10086414    -0.09230
C1814       C  0.54746219  0.71645680  0.12293734    -0.10790
C1815       C  0.62363241  0.65466221  0.30197930    -0.12390
C1816       C  0.62179126  0.68601350  0.29325258    -0.27570
H1817       H  0.60687367  0.62885559  0.28483603     0.16630
H1818       H  0.63788972  0.71146958  0.31116790     0.17210
C1819       C  0.66647531  0.61314344  0.30214968    -0.12390
C1820       C  0.69851469  0.61240614  0.29377350    -0.27570
H1821       H  0.64054213  0.59502086  0.28564401     0.16630
H1822       H  0.72396059  0.62979955  0.31136937     0.17210
C1823       C  0.64486456  0.67372108  0.37337325    -0.09230
C1824       C  0.64631496  0.69006422  0.40395070    -0.10790
C1825       C  0.82471661  0.86157644  0.32844491    -0.12390
C1826       C  0.83969351  0.86997017  0.29172093    -0.27570
H1827       H  0.81384394  0.87908565  0.34073452     0.16630
H1828       H  0.84700415  0.85091013  0.27682860     0.17210
C1829       C  0.86976884  0.79943854  0.29520998    -0.12390
C1830       C  0.87015558  0.82058310  0.32586973    -0.27570
H1831       H  0.84352027  0.77363040  0.28733823     0.16630
H1832       H  0.89559479  0.84745535  0.33287221     0.17210
C1833       C  0.78510346  0.81566803  0.37951895    -0.09230
C1834       C  0.76066011  0.81245905  0.40204103    -0.10790
C1835       C  0.62225303  0.65127913  0.19460559    -0.12390
C1836       C  0.62469670  0.68434614  0.20531035    -0.27570
H1837       H  0.60162379  0.62486160  0.20881959     0.16630
H1838       H  0.64473882  0.71029617  0.18987419     0.17210
C1839       C  0.69562779  0.60919116  0.20602912    -0.12390
C1840       C  0.66359589  0.60857858  0.19455060    -0.27570
H1841       H  0.72224754  0.62811654  0.19100561     0.16630
H1842       H  0.63680920  0.58934639  0.20904989     0.17210
C1843       C  0.64236610  0.66927438  0.12355778    -0.09230
C1844       C  0.64323344  0.68576082  0.09338056    -0.10790
C1845       C  0.83103854  0.85702381  0.17219408    -0.12390
C1846       C  0.82008323  0.85911418  0.20911008    -0.27570
H1847       H  0.85049574  0.88275727  0.15610305     0.16630
H1848       H  0.80096255  0.83302612  0.22491083     0.17210
C1849       C  0.86988879  0.81244850  0.17035107    -0.12390
C1850       C  0.87092524  0.80980993  0.21002030    -0.27570
H1851       H  0.89408748  0.81707679  0.15246416     0.16630
H1852       H  0.84541816  0.80370764  0.22632721     0.17210
C1853       C  0.75714779  0.80877917  0.10450013    -0.09230
C1854       C  0.78193932  0.81115781  0.12633566    -0.10790
C1855       C  0.68613127  0.53348021  0.32221211    -0.12390
C1856       C  0.70891166  0.55700142  0.29392910    -0.27570
H1857       H  0.65754900  0.52903644  0.32612904     0.16630
H1858       H  0.73670874  0.55983578  0.28872282     0.17210
C1859       C  0.64504848  0.94963905  0.33058872    -0.12390
C1860       C  0.64217855  0.94982698  0.29085497    -0.27570
H1861       H  0.62326753  0.92598586  0.34749583     0.16630
H1862       H  0.66550490  0.97274313  0.27468201     0.17210
C1863       C  0.69184550  0.95595324  0.38045691    -0.09230
C1864       C  0.69428845  0.93375074  0.40237647    -0.10790
C1865       C  0.90280060  0.56717566  0.29703034    -0.12390
C1866       C  0.89915031  0.53345678  0.30753147    -0.27570
H1867       H  0.88689578  0.57795652  0.31307307     0.16630
H1868       H  0.91541622  0.52280647  0.29199181     0.17210
C1869       C  0.84650350  0.93700890  0.28821224    -0.12390
C1870       C  0.86784366  0.95022528  0.32115316    -0.27570
H1871       H  0.83026003  0.95020076  0.27809587     0.16630
H1872       H  0.88367344  0.93685664  0.33191717     0.17210
C1873       C  0.83979881  0.95636110  0.38425110    -0.09230
C1874       C  0.81990354  0.94169930  0.41290405    -0.10790
C1875       C  0.69231407  0.54221773  0.16940786    -0.12390
C1876       C  0.69696835  0.54690194  0.20892469    -0.27570
H1877       H  0.68611022  0.56090197  0.15173707     0.16630
H1878       H  0.70436850  0.52825989  0.22509718     0.17210
C1879       C  0.64859174  0.94089678  0.20686828    -0.12390
C1880       C  0.64821709  0.95882413  0.17369649    -0.27570
H1881       H  0.67528491  0.94394303  0.21777152     0.16630
H1882       H  0.62195337  0.95697266  0.16307088     0.17210
C1883       C  0.69132281  0.95483936  0.12475184    -0.09230
C1884       C  0.69243959  0.93140324  0.10356527    -0.10790
C1885       C  0.83041566  0.92523580  0.20297426    -0.12390
C1886       C  0.86099014  0.95865953  0.19290018    -0.27570
H1887       H  0.80398195  0.91497452  0.18644477     0.16630
H1888       H  0.88766853  0.96882626  0.20891914     0.17210
C1889       C  0.91433246  0.54185888  0.17888496    -0.12390
C1890       C  0.90674186  0.55510100  0.21202198    -0.27570
H1891       H  0.94338777  0.55499254  0.16794954     0.16630
H1892       H  0.87744300  0.54221352  0.22229636     0.17210
C1893       C  0.83407378  0.95748338  0.12503562    -0.09230
C1894       C  0.81480975  0.94044406  0.09691983    -0.10790
C1895       C  0.82284577  0.76945650  0.12215344    -0.09230
C1896       C  0.82113680  0.74566312  0.09966734    -0.10790
C1897       C  0.70123928  0.63354567  0.09352456    -0.09230
C1898       C  0.68430734  0.63137617  0.12390224    -0.10790
C1899       C  0.70075761  0.63500266  0.40386355    -0.09230
C1900       C  0.68442425  0.63376077  0.37341282    -0.10790
C1901       C  0.82653698  0.77526226  0.37570348    -0.09230
C1902       C  0.82411484  0.75045523  0.39753321    -0.10790
C1903       C  0.75830787  0.55975659  0.09768214    -0.09230
C1904       C  0.73414328  0.53778874  0.11995323    -0.10790
C1905       C  0.88006265  0.53619432  0.11578469    -0.09230
C1906       C  0.87474523  0.55079954  0.08704496    -0.10790
C1907       C  0.87037026  0.55190558  0.40298275    -0.09230
C1908       C  0.87280162  0.53496825  0.37491282    -0.10790
C1909       C  0.73216213  0.53788909  0.37377022    -0.09230
C1910       C  0.75644724  0.56092638  0.39565158    -0.10790
C1911       C  0.95372076  0.80619844  0.40572729    -0.09230
C1912       C  0.96930499  0.82311791  0.37577865    -0.10790
C1913       C  0.96769217  0.68193488  0.37485938    -0.09230
C1914       C  0.94500469  0.68408506  0.39623341    -0.10790
C1915       C  0.96567376  0.67611056  0.12048143    -0.09230
C1916       C  0.94437770  0.67955230  0.09803035    -0.10790
C1917       C  0.96694689  0.81973822  0.12522401    -0.09230
C1918       C  0.95207199  0.80296621  0.09481561    -0.10790
O1919       O  0.74257147  0.67228476  0.95303846    -0.84140
C1920       C  0.93492024  0.78153804  0.55933380     1.15900
O1921       O  0.79808747  0.65456926  0.49782734    -1.31950
O1922       O  0.90681320  0.78408445  0.95413363    -0.85620
O1923       O  0.72183135  0.60960187  0.95305953    -0.86290
O1924       O  0.80712125  0.62126925  0.91400224    -0.75110
O1925       O  0.82413899  0.72979508  0.96098618    -0.97200
C1926       C  0.91735313  0.68108747  0.92447984     1.25950
O1927       O  0.85104034  0.62960732  0.99674709    -1.32090
Mn1928     Mn  0.84183781  0.66339006  0.54028076     1.82060
O1929       O  0.88477151  0.67405948  0.91405537    -0.74180
O1930       O  0.94927709  0.76398013  0.95439041    -0.83580
C1931       C  0.91727453  0.67808286  0.56980317     1.17030
C1932       C  0.93583768  0.78387716  0.94023825     1.11760
O1933       O  0.80822848  0.61995992  0.58037391    -0.75120
O1934       O  0.87593207  0.70738166  0.99783916    -1.28820
O1935       O  0.77676677  0.58079590  0.53452605    -0.94330
C1936       C  0.86654402  0.57069717  0.93666072     1.10470
Mn1937     Mn  0.93456387  0.72259014  0.99828886     1.48570
O1938       O  0.83349991  0.55690752  0.95145774    -0.83530
Mn1939     Mn  0.75060536  0.59783779  0.49781930     1.49560
O1940       O  0.74233803  0.67149466  0.54353242    -0.87410
C1941       C  0.82616021  0.72486475  0.92559873     1.23660
C1942       C  0.72293353  0.63823669  0.55806575     1.15720
Mn1943     Mn  0.84151982  0.66426844  0.95462669     1.80970
O1944       O  0.92459713  0.68062938  0.53455644    -0.92560
Mn1945     Mn  0.78288552  0.69796944  0.99822924     1.49260
C1946       C  0.72259776  0.63903374  0.93883443     1.12240
Mn1947     Mn  0.90775627  0.63902117  0.49604304     1.49930
C1948       C  0.86828660  0.56924712  0.55394906     1.15150
O1949       O  0.77607310  0.58110224  0.95944188    -0.98360
O1950       O  0.94853656  0.76196877  0.54468901    -0.88030
C1951       C  0.78132902  0.58873097  0.92415335     1.26430
O1952       O  0.92449615  0.68238073  0.95973746    -0.98750
O1953       O  0.90631603  0.78240648  0.54492558    -0.86150
O1954       O  0.89707188  0.59819726  0.53952638    -0.85760
O1955       O  0.72261374  0.60907384  0.54377480    -0.85780
Mn1956     Mn  0.86661912  0.75484607  0.49907769     1.47860
O1957       O  0.88508014  0.67189009  0.58037251    -0.74250
C1958       C  0.78253323  0.58767778  0.56976596     1.19480
O1959       O  0.83235995  0.69888832  0.91484961    -0.72990
O1960       O  0.83252827  0.69672261  0.58113666    -0.72600
Mn1961     Mn  0.80769678  0.57099141  0.99657983     1.51060
O1962       O  0.89590449  0.59995066  0.95000759    -0.84950
O1963       O  0.82386179  0.72839293  0.53599466    -0.92480
O1964       O  0.83441931  0.55631051  0.54130377    -0.87490
C1965       C  0.82533889  0.72222215  0.57110786     1.17270
C1966       C  0.85965668  0.97974087  0.65701552     0.04610
C1967       C  0.88364091  0.51713536  0.65066444     0.04600
C1968       C  0.68351405  0.97906896  0.65006933     0.04610
C1969       C  0.70287639  0.51723336  0.64722318     0.04600
C1970       C  0.86225601  0.97501165  0.84920810     0.04610
C1971       C  0.87676436  0.51299904  0.84277820     0.04600
C1972       C  0.68003991  0.97514253  0.85289306     0.04610
C1973       C  0.69962552  0.51416824  0.84828532     0.04600
C1974       C  0.83391205  0.80106130  0.64901426     0.04610
C1975       C  0.81490910  0.82064706  0.65097733     0.04600
C1976       C  0.66336412  0.63118075  0.65944148     0.04610
C1977       C  0.64338892  0.64986095  0.65933380     0.04600
C1978       C  0.81620190  0.82696432  0.85185089     0.04610
C1979       C  0.83581659  0.80779379  0.85014155     0.04600
C1980       C  0.66470259  0.63438227  0.83733115     0.04610
C1981       C  0.64522526  0.65360150  0.83742235     0.04600
C1982       C  0.83288716  0.89678019  0.72837316     0.04610
C1983       C  0.84095092  0.90198025  0.76783228     0.04600
C1984       C  0.52489206  0.68426649  0.64903101     0.04610
C1985       C  0.98639724  0.66524411  0.64763996     0.04600
C1986       C  0.52644666  0.85900872  0.66094564     0.04570
C1987       C  0.48780379  0.84080699  0.66062838     0.04600
C1988       C  0.52869314  0.86448251  0.84111755     0.04610
C1989       C  0.49012931  0.84401689  0.84039099     0.04600
C1990       C  0.99022214  0.67205368  0.84940012     0.04610
C1991       C  0.52881386  0.69238627  0.84860178     0.04600
C1992       C  0.61017657  0.91762756  0.76823928     0.04610
C1993       C  0.61306334  0.91516224  0.72829841     0.04600
C1994       C  0.59372387  0.68564230  0.72742793     0.04610
C1995       C  0.59138840  0.68507699  0.76772895     0.04600
C1996       C  0.93705900  0.58997860  0.73179171     0.04610
C1997       C  0.93458732  0.59542004  0.77126070     0.04600
C1998       C  0.90469908  0.81243902  0.73166015     0.04610
C1999       C  0.90474523  0.81008840  0.77194093     0.04600
C2000       C  0.69549701  0.57874462  0.72992624     0.04610
C2001       C  0.69842979  0.58177202  0.77015405     0.04600
O2002       O  0.68119672  0.72846501  0.54523899    -0.84140
C2003       C  0.79510876  0.92305632  0.94599650     1.15900
O2004       O  0.66472839  0.78499933  0.00124135    -1.31950
O2005       O  0.79214926  0.89242737  0.54993837    -0.85620
O2006       O  0.61856740  0.70792525  0.54397062    -0.86290
O2007       O  0.62917664  0.79296345  0.58377465    -0.75110
O2008       O  0.73834311  0.81003299  0.54036490    -0.97200
C2009       C  0.68911778  0.90350108  0.57527774     1.25950
O2010       O  0.63969597  0.83777759  0.00136076    -1.32090
Mn2011     Mn  0.67481178  0.82929385  0.95916403     1.82060
O2012       O  0.68178805  0.87075437  0.58544599    -0.74180
O2013       O  0.77287046  0.93556025  0.54802936    -0.83580
C2014       C  0.69089600  0.90517218  0.93010439     1.17030
C2015       C  0.79211724  0.92177532  0.56300652     1.11760
O2016       O  0.63247778  0.79632416  0.91781591    -0.75120
O2017       O  0.71755706  0.86273240  0.00288885    -1.28820
O2018       O  0.59175960  0.76415450  0.96229120    -0.94330
C2019       C  0.57958690  0.85286210  0.56016461     1.10470
Mn2020     Mn  0.73286588  0.92147974  0.50300597     1.48570
O2021       O  0.56623687  0.81981133  0.54535956    -0.83530
Mn2022     Mn  0.60798350  0.73747754  0.99939060     1.49560
O2023       O  0.68302971  0.73044603  0.95503223    -0.87410
C2024       C  0.73235415  0.81139111  0.57558033     1.23660
C2025       C  0.65004389  0.71111368  0.93974794     1.15720
Mn2026     Mn  0.67318732  0.82793118  0.54459276     1.80970
O2027       O  0.69205614  0.91168165  0.96538105    -0.92560
Mn2028     Mn  0.70815904  0.76986747  0.50151048     1.49260
C2029       C  0.64768581  0.70828918  0.55861949     1.12240
Mn2030     Mn  0.64901035  0.89451865  0.00197637     1.49930
C2031       C  0.58117106  0.85493734  0.94129963     1.15150
O2032       O  0.59025718  0.76223392  0.53720796    -0.98360
O2033       O  0.77417242  0.93599689  0.95849398    -0.88030
C2034       C  0.59711148  0.76693072  0.57269137     1.26430
O2035       O  0.69131756  0.91108797  0.54003660    -0.98750
O2036       O  0.79501307  0.89411608  0.96057106    -0.86150
O2037       O  0.60978953  0.88388002  0.95617872    -0.85760
O2038       O  0.62047450  0.71029936  0.95357430    -0.85780
Mn2039     Mn  0.76493642  0.85323344  0.00406620     1.47860
O2040       O  0.68465063  0.87306846  0.91919417    -0.74250
C2041       C  0.59975888  0.77068690  0.92726297     1.19480
O2042       O  0.70646757  0.81801269  0.58554493    -0.72990
O2043       O  0.70958109  0.82090434  0.91946692    -0.72600
Mn2044     Mn  0.58112406  0.79449554  0.50004621     1.51060
O2045       O  0.60851122  0.88239498  0.54660034    -0.84950
O2046       O  0.74017893  0.81168861  0.96546616    -0.92480
O2047       O  0.56738375  0.82140761  0.95509608    -0.87490
C2048       C  0.73534455  0.81432799  0.93018959     1.17270
C2049       C  0.56140922  0.69007261  0.78823236    -0.12390
C2050       C  0.55169025  0.67964209  0.82618779    -0.27570
H2051       H  0.54793771  0.70389335  0.77290510     0.16630
H2052       H  0.56452920  0.66591128  0.84283489     0.17210
C2053       C  0.96065731  0.63268972  0.79054595    -0.12390
C2054       C  0.96875143  0.63502541  0.82935148    -0.27570
H2055       H  0.97240458  0.65884946  0.77332978     0.16630
H2056       H  0.95679064  0.60960169  0.84776329     0.17210
C2057       C  0.55052919  0.72408261  0.87485250    -0.09230
C2058       C  0.57251514  0.74751059  0.89781885    -0.10790
C2059       C  0.55115607  0.88955134  0.80775328    -0.12390
C2060       C  0.57894611  0.88581199  0.79066487    -0.27570
H2061       H  0.54725342  0.91340767  0.79989123     0.16630
H2062       H  0.58261546  0.86178190  0.79847487     0.17210
C2063       C  0.96756671  0.84277546  0.80492318    -0.12390
C2064       C  0.93592016  0.81024690  0.79507646    -0.27570
H2065       H  0.97483143  0.86898030  0.78919755     0.16630
H2066       H  0.92862931  0.78444940  0.81167522     0.17210
C2067       C  0.54931587  0.86325109  0.87611369    -0.09230
C2068       C  0.56402514  0.86021900  0.90614261    -0.10790
C2069       C  0.54949192  0.88076639  0.69619049    -0.12390
C2070       C  0.58369180  0.88416718  0.70344335    -0.27570
H2071       H  0.53990184  0.89644997  0.71438859     0.16630
H2072       H  0.59358426  0.86916008  0.68454416     0.17210
C2073       C  0.96565204  0.84228114  0.69502213    -0.12390
C2074       C  0.93448368  0.81074460  0.70759669    -0.27570
H2075       H  0.97304093  0.86966924  0.70794317     0.16630
H2076       H  0.92686672  0.78349449  0.69410951     0.17210
C2077       C  0.54650722  0.85838247  0.62532754    -0.09230
C2078       C  0.56160611  0.85670671  0.59514932    -0.10790
C2079       C  0.54716932  0.67246218  0.67393946    -0.12390
C2080       C  0.56957703  0.69547685  0.70279956    -0.27570
H2081       H  0.54435874  0.64460790  0.66942150     0.16630
H2082       H  0.57054070  0.72239372  0.70826125     0.17210
C2083       C  0.96052290  0.63073592  0.67159527    -0.12390
C2084       C  0.96787681  0.62131061  0.70760398    -0.27570
H2085       H  0.93158575  0.61401224  0.66025897     0.16630
H2086       H  0.99500661  0.63906980  0.72192469     0.17210
C2087       C  0.56950578  0.74108910  0.60077147    -0.09230
C2088       C  0.54745285  0.71635887  0.62284991    -0.10790
C2089       C  0.62357505  0.65463050  0.80200538    -0.12390
C2090       C  0.62167319  0.68597055  0.79339467    -0.27570
H2091       H  0.60692841  0.62888298  0.78473609     0.16630
H2092       H  0.63768844  0.71137018  0.81141002     0.17210
C2093       C  0.66627802  0.61302368  0.80204339    -0.12390
C2094       C  0.69858070  0.61307649  0.79295488    -0.27570
H2095       H  0.64011818  0.59419924  0.78622340     0.16630
H2096       H  0.72425405  0.63116474  0.80994309     0.17210
C2097       C  0.64483359  0.67359434  0.87342377    -0.09230
C2098       C  0.64629226  0.68992294  0.90401699    -0.10790
C2099       C  0.82477789  0.86168668  0.82842535    -0.12390
C2100       C  0.83978690  0.87012853  0.79171377    -0.27570
H2101       H  0.81387279  0.87916526  0.84072237     0.16630
H2102       H  0.84713741  0.85110179  0.77681308     0.17210
C2103       C  0.86997837  0.79960924  0.79520003    -0.12390
C2104       C  0.87027471  0.82075055  0.82581831    -0.27570
H2105       H  0.84378184  0.77373952  0.78734500     0.16630
H2106       H  0.89565397  0.84768540  0.83278478     0.17210
C2107       C  0.78516317  0.81571387  0.87947168    -0.09230
C2108       C  0.76070381  0.81243556  0.90201479    -0.10790
C2109       C  0.62213241  0.65136385  0.69461225    -0.12390
C2110       C  0.62470065  0.68443773  0.70547694    -0.27570
H2111       H  0.60137414  0.62491140  0.70867262     0.16630
H2112       H  0.64483604  0.71042640  0.69016254     0.17210
C2113       C  0.69615106  0.60942598  0.70518165    -0.12390
C2114       C  0.66413861  0.60932972  0.69470128    -0.27570
H2115       H  0.72237288  0.62752905  0.68911904     0.16630
H2116       H  0.63770920  0.59083556  0.71018264     0.17210
C2117       C  0.64208979  0.66932710  0.62352845    -0.09230
C2118       C  0.64301958  0.68581219  0.59332803    -0.10790
C2119       C  0.83108983  0.85721929  0.67215193    -0.12390
C2120       C  0.82019310  0.85930601  0.70909837    -0.27570
H2121       H  0.85047360  0.88295627  0.65602279     0.16630
H2122       H  0.80113212  0.83320963  0.72491935     0.17210
C2123       C  0.87001949  0.81270718  0.67037278    -0.12390
C2124       C  0.87110409  0.81007576  0.71004182    -0.27570
H2125       H  0.89421749  0.81737314  0.65246012     0.16630
H2126       H  0.84560006  0.80393729  0.72637527     0.17210
C2127       C  0.75717816  0.80887824  0.60449644    -0.09230
C2128       C  0.78199556  0.81128722  0.62632140    -0.10790
C2129       C  0.68619538  0.53413940  0.82179561    -0.12390
C2130       C  0.70919970  0.55782493  0.79375285    -0.27570
H2131       H  0.65748879  0.52945990  0.82533612     0.16630
H2132       H  0.73713066  0.56085807  0.78891487     0.17210
C2133       C  0.64458253  0.94930177  0.83088655    -0.12390
C2134       C  0.64191505  0.94958800  0.79113767    -0.27570
H2135       H  0.62275000  0.92559635  0.84768627     0.16630
H2136       H  0.66534567  0.97252257  0.77509204     0.17210
C2137       C  0.69151143  0.95551160  0.88053007    -0.09230
C2138       C  0.69411743  0.93335010  0.90231869    -0.10790
C2139       C  0.90293545  0.56721905  0.79637856    -0.12390
C2140       C  0.89951150  0.53365119  0.80707226    -0.27570
H2141       H  0.88690625  0.57792998  0.81230230     0.16630
H2142       H  0.91593868  0.52311449  0.79165639     0.17210
C2143       C  0.84656424  0.93715558  0.78824565    -0.12390
C2144       C  0.86787597  0.95034929  0.82120865    -0.27570
H2145       H  0.83031626  0.95034387  0.77813226     0.16630
H2146       H  0.88370471  0.93697960  0.83197233     0.17210
C2147       C  0.83978687  0.95636722  0.88430264    -0.09230
C2148       C  0.81989273  0.94163115  0.91292874    -0.10790
C2149       C  0.69180275  0.54162005  0.66944220    -0.12390
C2150       C  0.69815535  0.54760324  0.70866581    -0.27570
H2151       H  0.68371175  0.55897054  0.65189434     0.16630
H2152       H  0.70714859  0.53012455  0.72470400     0.17210
C2153       C  0.64894949  0.94062209  0.70726567    -0.12390
C2154       C  0.64898285  0.95925977  0.67449492    -0.27570
H2155       H  0.67538346  0.94291748  0.71797943     0.16630
H2156       H  0.62298777  0.95821398  0.66422465     0.17210
C2157       C  0.69166807  0.95475079  0.62533040    -0.09230
C2158       C  0.69258874  0.93136644  0.60388321    -0.10790
C2159       C  0.83049759  0.92542838  0.70299409    -0.12390
C2160       C  0.86106601  0.95886357  0.69292998    -0.27570
H2161       H  0.80407144  0.91515686  0.68644776     0.16630
H2162       H  0.88773788  0.96903886  0.70896330     0.17210
C2163       C  0.91428347  0.54154778  0.67851950    -0.12390
C2164       C  0.90681059  0.55513730  0.71147054    -0.27570
H2165       H  0.94334283  0.55442746  0.66764677     0.16630
H2166       H  0.87750772  0.54251594  0.72166373     0.17210
C2167       C  0.83419506  0.95762993  0.62502650    -0.09230
C2168       C  0.81492085  0.94054526  0.59693233    -0.10790
C2169       C  0.82290976  0.76956683  0.62229888    -0.09230
C2170       C  0.82116729  0.74571850  0.59986817    -0.10790
C2171       C  0.70106926  0.63369111  0.59346808    -0.09230
C2172       C  0.68414942  0.63159711  0.62380744    -0.10790
C2173       C  0.70077536  0.63489330  0.90368264    -0.09230
C2174       C  0.68442961  0.63363925  0.87323678    -0.10790
C2175       C  0.82658946  0.77530956  0.87554680    -0.09230
C2176       C  0.82413567  0.75046376  0.89733945    -0.10790
C2177       C  0.75826717  0.55973871  0.59798969    -0.09230
C2178       C  0.73408437  0.53763786  0.62017621    -0.10790
C2179       C  0.87986924  0.53590635  0.61560309    -0.09230
C2180       C  0.87458341  0.55065202  0.58700011    -0.10790
C2181       C  0.87069070  0.55209300  0.90262286    -0.09230
C2182       C  0.87321686  0.53522873  0.87451093    -0.10790
C2183       C  0.73215785  0.53839879  0.87334903    -0.09230
C2184       C  0.75649522  0.56122557  0.89532307    -0.10790
C2185       C  0.95394041  0.80632364  0.90561752    -0.09230
C2186       C  0.96962982  0.82328381  0.87570969    -0.10790
C2187       C  0.96771307  0.68193453  0.87473011    -0.09230
C2188       C  0.94510224  0.68415055  0.89614662    -0.10790
C2189       C  0.96605707  0.67633208  0.62027415    -0.09230
C2190       C  0.94456546  0.67968894  0.59802762    -0.10790
C2191       C  0.96723138  0.81991891  0.62529117    -0.09230
C2192       C  0.95227448  0.80305148  0.59493569    -0.10790
loop_ 
_geom_bond_atom_site_label_1 
_geom_bond_atom_site_label_2 
_geom_bond_distance 
_geom_bond_site_symmetry_2 
_ccdc_geom_bond_type 
O1           C28   1.269       .  A
O1          Mn27   2.088       .  S
C2           O35   1.270       .  A
C2           O32   1.270       .  A
C2          C274   1.438       .  S
O3          Mn10   2.161   1_556  S
O3          Mn21   2.137       .  S
O3         Mn299   2.159       .  S
O3         Mn301   2.135       .  S
O4           C14   1.270       .  A
O4         Mn312   2.101       .  S
O5           C28   1.270       .  A
O5         Mn295   2.094       .  S
O6           C33   1.253       .  A
O6          Mn25   2.103       .  S
O7          Mn27   1.970       .  S
O7         Mn312   1.965       .  S
O7           C23   1.218       .  S
C8           O11   1.250       .  A
C8          C270   1.425       .  S
C8           O34   1.214       .  S
O9          Mn43   2.135       .  S
O9          Mn25   2.158       .  S
O9         Mn303   2.135       .  S
O9         Mn284   2.157       .  S
Mn10         O39   2.099       .  S
Mn10         O15   2.090       .  S
Mn10         O42   2.091       .  S
Mn10        O283   2.157   1_554  S
Mn10        O290   2.156   1_554  S
O11         Mn25   2.093       .  S
O12          C14   1.268       .  A
O12         Mn19   2.087       .  S
C13          O39   1.251       .  A
C13         C272   1.439       .  S
C13          O26   1.218       .  S
C14         C267   1.437       .  S
O15          C40   1.249       .  A
O16         Mn19   2.133       .  S
O16         Mn25   2.164       .  S
O16        Mn284   2.155       .  S
O16        Mn312   2.136       .  S
O17         Mn21   1.958   1_554  S
O17        Mn317   1.954   1_554  S
O17          C40   1.215       .  S
C18          O44   1.270       .  A
C18          O20   1.268       .  A
C18         C263   1.430       .  S
Mn19        O306   2.094       .  S
Mn19         O34   1.954       .  S
Mn19        O300   1.963       .  S
O20         Mn43   2.083       .  S
Mn21         O37   2.101   1_556  S
Mn21        O279   2.094       .  S
Mn21        O305   1.968       .  S
O22          C24   1.271       .  A
O22        Mn301   2.101   1_554  S
C23          O41   1.251       .  A
C23         C258   1.438       .  S
C24          O37   1.270       .  A
C24         C253   1.443       .  S
Mn25         O41   2.097       .  S
Mn25        O277   2.154       .  S
O26         Mn29   1.965   1_554  S
O26        Mn293   1.968       .  S
Mn27        O296   2.099       .  S
Mn27        O277   2.135       .  S
Mn27        O319   1.956       .  S
C28         C255   1.434       .  S
Mn29         O36   2.093   1_556  S
Mn29        O318   2.096       .  S
Mn29        O283   2.137       .  S
Mn29        O308   1.960       .  S
C30          O36   1.269       .  A
C30          O46   1.270       .  A
C30         C262   1.438       .  S
O31         Mn43   1.970       .  S
O31        Mn295   1.966       .  S
O31          C33   1.219       .  S
O32        Mn293   2.094       .  S
C33         C266   1.441       .  S
O34        Mn303   1.953       .  S
O35         Mn38   2.097   1_554  S
Mn38        O278   2.099       .  S
Mn38        O290   2.136       .  S
Mn38         O45   1.962   1_556  S
Mn38        O281   1.965       .  S
C40         C259   1.427       .  S
O42          C47   1.250       .  A
Mn43        O320   2.101       .  S
Mn43        O291   1.957       .  S
O44        Mn303   2.093       .  S
O45        Mn301   1.956   1_554  S
O45          C47   1.215       .  S
O46        Mn317   2.098   1_554  S
C47         C252   1.427       .  S
C48         C242   1.491       .  S
C48         C249   1.449       .  S
C48         C597   1.353       .  D
C49         C245   1.480       .  S
C49         C261   1.458       .  S
C49         C596   1.350   1_545  D
C50         C236   1.469       .  S
C50         C239   1.450       .  S
C50         C599   1.354       .  D
C51         C231   1.477       .  S
C51         C260   1.438       .  S
C51         C598   1.352   1_545  D
C52         C226   1.473       .  S
C52         C229   1.454       .  S
C52         C601   1.354       .  D
C53         C222   1.495       .  S
C53         C264   1.451       .  S
C53         C600   1.358   1_545  D
C54         C215   1.484       .  S
C54         C219   1.442       .  S
C54         C603   1.359       .  D
C55         C211   1.477       .  S
C55         C265   1.455       .  S
C55         C602   1.358   1_545  D
C56         C205   1.477       .  S
C56         C251   1.438       .  S
C56          C57   1.354       .  D
C57         C201   1.471       .  S
C57         C210   1.448       .  S
C58         C196   1.490       .  S
C58         C254   1.463       .  S
C58          C59   1.356       .  D
C59         C191   1.488       .  S
C59         C199   1.454       .  S
C60         C181   1.493       .  S
C60         C189   1.444       .  S
C60          C61   1.361       .  D
C61         C186   1.472       .  S
C61         C257   1.452       .  S
C62         C175   1.491       .  S
C62         C256   1.455       .  S
C62          C63   1.357       .  D
C63         C171   1.491       .  S
C63         C179   1.464       .  S
C64         C202   1.487       .  S
C64         C241   1.481       .  S
C64          C65   1.358       .  D
C65         C182   1.499       .  S
C65         C225   1.494       .  S
C66         C161   1.473       .  S
C66         C170   1.454       .  S
C66        C1163   1.363   1_455  D
C67         C165   1.471       .  S
C67         C271   1.453       .  S
C67        C1162   1.356       .  D
C68         C151   1.494       .  S
C68         C159   1.459       .  S
C68          C69   1.357   1_455  D
C69        C1251   1.488       .  S
C69        C1369   1.461       .  S
C70         C141   1.483       .  S
C70         C149   1.458       .  S
C70          C71   1.354   1_455  D
C71        C1241   1.489       .  S
C71        C1364   1.456       .  S
C72         C136   1.480       .  S
C72         C269   1.437       .  S
C72        C1169   1.354       .  D
C73         C132   1.476       .  S
C73         C139   1.441       .  S
C73        C1168   1.354   1_455  D
C74         C142   1.485       .  S
C74         C216   1.503       .  S
C74          C75   1.358       .  D
C75         C152   1.483       .  S
C75         C235   1.478       .  S
C76         C162   1.478       .  S
C76         C192   1.479       .  S
C76          C77   1.360       .  D
C77         C131   1.497       .  S
C77         C172   1.484       .  S
C78         C166   1.477       .  S
C78         C246   1.473       .  S
C78          C79   1.359       .  D
C79         C135   1.501       .  S
C79         C221   1.489       .  S
C80         C156   1.486       .  S
C80         C206   1.501       .  S
C80          C81   1.360       .  D
C81         C146   1.477       .  S
C81         C185   1.479       .  S
C82         C195   1.484       .  S
C82         C232   1.500       .  S
C82          C83   1.360       .  D
C83         C176   1.481       .  S
C83         C212   1.477       .  S
O84         C111   1.268       .  A
O84        Mn110   2.084       .  S
C85         O118   1.268       .  A
C85         O115   1.272       .  A
C85         C230   1.437       .  S
O86         Mn93   2.158       .  S
O86        Mn104   2.139       .  S
O86        Mn382   2.162       .  S
O86        Mn384   2.135       .  S
O87          C97   1.269       .  A
O87        Mn395   2.089       .  S
O88         C111   1.270       .  A
O88        Mn378   2.097   1_554  S
O89         C116   1.252       .  A
O89        Mn108   2.099       .  S
O90        Mn110   1.966       .  S
O90        Mn395   1.960       .  S
O90         C106   1.218       .  S
C91          O94   1.253       .  A
C91         C240   1.438       .  S
C91         O117   1.217       .  S
O92        Mn112   2.136       .  S
O92         Mn93   2.158       .  S
O92        Mn400   2.136       .  S
O92        Mn382   2.156       .  S
Mn93        O122   2.098       .  S
Mn93         O98   2.090       .  S
Mn93        O125   2.091       .  S
Mn93         O99   2.156       .  S
O94        Mn108   2.104       .  S
O95          C97   1.266       .  A
O95        Mn102   2.077       .  S
C96         O122   1.250       .  A
C96         C220   1.430       .  S
C96         O109   1.213       .  S
C97         C250   1.425       .  S
O98         C123   1.250       .  A
O99        Mn121   2.137       .  S
O99        Mn376   2.134       .  S
O99        Mn382   2.160       .  S
O100       Mn104   1.964       .  S
O100       Mn400   1.960       .  S
O100        C123   1.217       .  S
C101        O127   1.270       .  A
C101        O103   1.270       .  A
C101        C160   1.436       .  S
Mn102       O389   2.102   1_554  S
Mn102       O373   2.134       .  S
Mn102       O117   1.966       .  S
Mn102       O383   1.954   1_554  S
O103       Mn126   2.092       .  S
Mn104       O120   2.101       .  S
Mn104       O362   2.098       .  S
Mn104       O388   1.966       .  S
O105        C107   1.271       .  A
O105       Mn384   2.100       .  S
C106        O124   1.251       .  A
C106        C209   1.436       .  S
C107        O120   1.271       .  A
C107        C180   1.442       .  S
Mn108       O124   2.099       .  S
Mn108       O360   2.162       .  S
Mn108       O366   2.156       .  S
Mn108       O373   2.161       .  S
O109       Mn112   1.959       .  S
O109       Mn376   1.954       .  S
Mn110       O379   2.099   1_554  S
Mn110       O360   2.135       .  S
Mn110       O402   1.959   1_554  S
C111        C200   1.433       .  S
Mn112       O119   2.096       .  S
Mn112       O401   2.096       .  S
Mn112       O391   1.963       .  S
C113        O119   1.270       .  A
C113        O129   1.270       .  A
C113        C150   1.440       .  S
O114       Mn126   1.970       .  S
O114       Mn378   1.966   1_554  S
O114        C116   1.219       .  S
O115       Mn376   2.102       .  S
C116        C169   1.439       .  S
O117       Mn386   1.963       .  S
O118       Mn121   2.088       .  S
Mn121       O361   2.089       .  S
Mn121       O128   1.961       .  S
Mn121       O364   1.960       .  S
C123        C140   1.430       .  S
O125        C130   1.250       .  A
Mn126       O403   2.097   1_554  S
Mn126       O366   2.136       .  S
Mn126       O374   1.961   1_554  S
O127       Mn386   2.096       .  S
O128       Mn384   1.960       .  S
O128        C130   1.216       .  S
O129       Mn400   2.098       .  S
C130        C190   1.430       .  S
C131        C132   1.342       .  D
C131        H133   1.086       .  S
C132        H134   1.086       .  S
C135        C136   1.341       .  D
C135        H137   1.084       .  S
C136        H138   1.085       .  S
C139        C140   1.203       .  T
C141        C142   1.340       .  D
C141        H143   1.086       .  S
C142        H144   1.087       .  S
C145       C1167   1.487       .  S
C145        C146   1.342       .  D
C145        H147   1.086       .  S
C146        H148   1.087       .  S
C149        C150   1.209       .  T
C151        C152   1.343       .  D
C151        H153   1.086       .  S
C152        H154   1.087       .  S
C155       C1165   1.490       .  S
C155        C156   1.341       .  D
C155        H157   1.086       .  S
C156        H158   1.087       .  S
C159        C160   1.207       .  T
C161        C162   1.338       .  D
C161        H163   1.087       .  S
C162        H164   1.087       .  S
C165        C166   1.338       .  D
C165        H167   1.087       .  S
C166        H168   1.087       .  S
C169        C170   1.208       .  T
C171        C172   1.341       .  D
C171        H173   1.086       .  S
C172        H174   1.087       .  S
C175        C176   1.343       .  D
C175        H177   1.086       .  S
C176        H178   1.087       .  S
C179        C180   1.211       .  T
C181        C182   1.345       .  D
C181        H183   1.087       .  S
C182        H184   1.080       .  S
C185        C186   1.338       .  D
C185        H187   1.088       .  S
C186        H188   1.087       .  S
C189        C190   1.203       .  T
C191        C192   1.342       .  D
C191        H193   1.086       .  S
C192        H194   1.087       .  S
C195        C196   1.341       .  D
C195        H197   1.087       .  S
C196        H198   1.086       .  S
C199        C200   1.205       .  T
C201        C202   1.338       .  D
C201        H203   1.087       .  S
C202        H204   1.087       .  S
C205        C206   1.342       .  D
C205        H207   1.085       .  S
C206        H208   1.085       .  S
C209        C210   1.207       .  T
C211        C212   1.338       .  D
C211        H213   1.087       .  S
C212        H214   1.087       .  S
C215        C216   1.343       .  D
C215        H217   1.085       .  S
C216        H218   1.084       .  S
C219        C220   1.203       .  T
C221        C222   1.348       .  D
C221        H223   1.087       .  S
C222        H224   1.086       .  S
C225        C226   1.341       .  D
C225        H227   1.087       .  S
C226        H228   1.086       .  S
C229        C230   1.207       .  T
C231        C232   1.343       .  D
C231        H233   1.085       .  S
C232        H234   1.086       .  S
C235        C236   1.335       .  D
C235        H237   1.087       .  S
C236        H238   1.087       .  S
C239        C240   1.208       .  T
C241        C242   1.345       .  D
C241        H243   1.087       .  S
C242        H244   1.087       .  S
C245        C246   1.336       .  D
C245        H247   1.087       .  S
C246        H248   1.087       .  S
C249        C250   1.201       .  T
C251        C252   1.201       .  T
C253        C254   1.211       .  T
C255        C256   1.206       .  T
C257        C258   1.208       .  T
C259        C260   1.201       .  T
C261        C262   1.208       .  T
C263        C264   1.203       .  T
C265        C266   1.209       .  T
C267        C268   1.208       .  T
C268       C1167   1.458       .  S
C269        C270   1.200       .  T
C271        C272   1.208       .  T
C273       C1165   1.458       .  S
C273        C274   1.208       .  T
O275        C302   1.269       .  A
O275       Mn301   2.088       .  S
C276        O309   1.271       .  A
C276        O306   1.270       .  A
C276        C548   1.439       .  S
O277       Mn284   2.159       .  S
O277       Mn295   2.137       .  S
O278        C288   1.271       .  A
O279        C302   1.269       .  A
O280        C307   1.253       .  A
O280       Mn299   2.104       .  S
O281       Mn301   1.968       .  S
O281        C297   1.218       .  S
C282        O285   1.252       .  A
C282        C544   1.433       .  S
C282        O308   1.216       .  S
O283       Mn317   2.136       .  S
O283       Mn299   2.160       .  S
Mn284       O313   2.097       .  S
Mn284       O289   2.091       .  S
Mn284       O316   2.089       .  S
O285       Mn299   2.100       .  S
O286        C288   1.270       .  A
O286       Mn293   2.094   1_556  S
C287        O313   1.251       .  A
C287        C546   1.434       .  S
C287        O300   1.216       .  S
C288        C541   1.439       .  S
O289        C314   1.249       .  A
O290       Mn293   2.136   1_556  S
O290       Mn299   2.161       .  S
O291       Mn295   1.961       .  S
O291        C314   1.215       .  S
C292        O318   1.270       .  A
C292        O294   1.268       .  A
C292        C537   1.433       .  S
Mn293       O308   1.960   1_554  S
O294       Mn317   2.085       .  S
Mn295       O311   2.100       .  S
O296        C298   1.271       .  A
C297        O315   1.253       .  A
C297        C532   1.440       .  S
C298        O311   1.270       .  A
C298        C527   1.442       .  S
Mn299       O315   2.105       .  S
O300       Mn303   1.962       .  S
C302        C529   1.434       .  S
Mn303       O310   2.084       .  S
C304        O310   1.267       .  A
C304        O320   1.272       .  A
C304        C536   1.435       .  S
O305       Mn317   1.970       .  S
O305        C307   1.219       .  S
C307        C540   1.441       .  S
O309       Mn312   2.100       .  S
Mn312       O319   1.962       .  S
C314        C533   1.428       .  S
O316        C321   1.250       .  A
O319        C321   1.216       .  S
C321        C526   1.426       .  S
C322        C516   1.492       .  S
C322        C523   1.449       .  S
C322        C871   1.354       .  D
C323        C519   1.473       .  S
C323        C535   1.452       .  S
C323        C870   1.354   1_545  D
C324        C510   1.469       .  S
C324        C513   1.450       .  S
C324        C873   1.353       .  D
C325        C505   1.477       .  S
C325        C534   1.438       .  S
C325        C872   1.353   1_545  D
C326        C500   1.473       .  S
C326        C503   1.453       .  S
C326        C875   1.354       .  D
C327        C496   1.492       .  S
C327        C538   1.455       .  S
C327        C874   1.354   1_545  D
C328        C489   1.484       .  S
C328        C493   1.442       .  S
C328        C877   1.358       .  D
C329        C485   1.478       .  S
C329        C539   1.455       .  S
C329        C876   1.359   1_545  D
C330        C479   1.478       .  S
C330        C525   1.438       .  S
C330        C331   1.354       .  D
C331        C475   1.470       .  S
C331        C484   1.449       .  S
C332        C470   1.490       .  S
C332        C528   1.462       .  S
C332        C333   1.356       .  D
C333        C465   1.488       .  S
C333        C473   1.455       .  S
C334        C455   1.495       .  S
C334        C463   1.444       .  S
C334        C335   1.362       .  D
C335        C460   1.471       .  S
C335        C531   1.454       .  S
C336        C449   1.491       .  S
C336        C530   1.456       .  S
C336        C337   1.357       .  D
C337        C445   1.491       .  S
C337        C453   1.463       .  S
C338        C476   1.487       .  S
C338        C515   1.482       .  S
C338        C339   1.359       .  D
C339        C456   1.501       .  S
C339        C499   1.494       .  S
C340        C435   1.474       .  S
C340        C444   1.454       .  S
C340       C1437   1.363   1_455  D
C341        C439   1.497       .  S
C341        C545   1.448       .  S
C341       C1436   1.364       .  D
C342        C425   1.494       .  S
C342        C433   1.458       .  S
C342        C343   1.356   1_455  D
C343       C1525   1.488       .  S
C343       C1643   1.461       .  S
C344        C415   1.483       .  S
C344        C423   1.457       .  S
C344        C345   1.354   1_455  D
C345       C1515   1.489       .  S
C345       C1638   1.456       .  S
C346        C410   1.471       .  S
C346        C543   1.444       .  S
C346       C1443   1.354       .  D
C347        C406   1.475       .  S
C347        C413   1.441       .  S
C347       C1442   1.353   1_455  D
C348        C416   1.485       .  S
C348        C490   1.503       .  S
C348        C349   1.358       .  D
C349        C426   1.483       .  S
C349        C509   1.477       .  S
C350        C436   1.479       .  S
C350        C466   1.479       .  S
C350        C351   1.360       .  D
C351        C405   1.495       .  S
C351        C446   1.484       .  S
C352        C440   1.501       .  S
C352        C520   1.495       .  S
C352        C353   1.361       .  D
C353        C409   1.493       .  S
C353        C495   1.485       .  S
C354        C430   1.484       .  S
C354        C480   1.501       .  S
C354        C355   1.359       .  D
C355        C420   1.479       .  S
C355        C459   1.476       .  S
C356        C469   1.485       .  S
C356        C506   1.501       .  S
C356        C357   1.360       .  D
C357        C450   1.481       .  S
C357        C486   1.478       .  S
O358        C385   1.268       .  A
O358       Mn384   2.085       .  S
C359        O392   1.268       .  A
C359        O389   1.272       .  A
C359        C504   1.436       .  S
O360       Mn367   2.158   1_554  S
O360       Mn378   2.139   1_554  S
O361        C371   1.269       .  A
O362        C385   1.270       .  A
O363        C390   1.252       .  A
O363       Mn382   2.099       .  S
O364       Mn384   1.966       .  S
O364        C380   1.218       .  S
C365        O368   1.253       .  A
C365        C514   1.438       .  S
C365        O391   1.217       .  S
O366       Mn386   2.136       .  S
O366       Mn367   2.159   1_554  S
Mn367       O396   2.098       .  S
Mn367       O372   2.090       .  S
Mn367       O399   2.093       .  S
Mn367       O373   2.156   1_556  S
O368       Mn382   2.104       .  S
O369        C371   1.267       .  A
O369       Mn376   2.078       .  S
C370        O396   1.250       .  A
C370        C494   1.430       .  S
C370        O383   1.213       .  S
C371        C524   1.426       .  S
O372        C397   1.250       .  A
O373       Mn395   2.137       .  S
O374       Mn378   1.964       .  S
O374        C397   1.217       .  S
C375        O401   1.270       .  A
C375        O377   1.270       .  A
C375        C434   1.436       .  S
Mn376       O391   1.966       .  S
O377       Mn400   2.091       .  S
Mn378       O394   2.100       .  S
O379        C381   1.271       .  A
C380        O398   1.251       .  A
C380        C483   1.436       .  S
C381        O394   1.271       .  A
C381        C454   1.442       .  S
Mn382       O398   2.098       .  S
O383       Mn386   1.959   1_556  S
C385        C474   1.435       .  S
Mn386       O393   2.096   1_554  S
C387        O393   1.269       .  A
C387        O403   1.270       .  A
C387        C424   1.439       .  S
O388       Mn400   1.970       .  S
O388        C390   1.219       .  S
C390        C443   1.439       .  S
O392       Mn395   2.087   1_556  S
Mn395       O402   1.960   1_554  S
C397        C414   1.431       .  S
O399        C404   1.251       .  A
O402        C404   1.216       .  S
C404        C464   1.430       .  S
C405        C406   1.342       .  D
C405        H407   1.086       .  S
C406        H408   1.086       .  S
C409        C410   1.339       .  D
C409        H411   1.087       .  S
C410        H412   1.086       .  S
C413        C414   1.203       .  T
C415        C416   1.339       .  D
C415        H417   1.086       .  S
C416        H418   1.087       .  S
C419       C1441   1.489       .  S
C419        C420   1.342       .  D
C419        H421   1.087       .  S
C420        H422   1.087       .  S
C423        C424   1.209       .  T
C425        C426   1.343       .  D
C425        H427   1.086       .  S
C426        H428   1.087       .  S
C429       C1439   1.488       .  S
C429        C430   1.340       .  D
C429        H431   1.086       .  S
C430        H432   1.087       .  S
C433        C434   1.207       .  T
C435        C436   1.339       .  D
C435        H437   1.087       .  S
C436        H438   1.087       .  S
C439        C440   1.347       .  D
C439        H441   1.088       .  S
C440        H442   1.079       .  S
C443        C444   1.208       .  T
C445        C446   1.341       .  D
C445        H447   1.086       .  S
C446        H448   1.087       .  S
C449        C450   1.343       .  D
C449        H451   1.086       .  S
C450        H452   1.087       .  S
C453        C454   1.210       .  T
C455        C456   1.346       .  D
C455        H457   1.087       .  S
C456        H458   1.080       .  S
C459        C460   1.337       .  D
C459        H461   1.088       .  S
C460        H462   1.087       .  S
C463        C464   1.203       .  T
C465        C466   1.342       .  D
C465        H467   1.086       .  S
C466        H468   1.087       .  S
C469        C470   1.341       .  D
C469        H471   1.087       .  S
C470        H472   1.086       .  S
C473        C474   1.206       .  T
C475        C476   1.338       .  D
C475        H477   1.087       .  S
C476        H478   1.087       .  S
C479        C480   1.342       .  D
C479        H481   1.085       .  S
C480        H482   1.085       .  S
C483        C484   1.207       .  T
C485        C486   1.338       .  D
C485        H487   1.087       .  S
C486        H488   1.087       .  S
C489        C490   1.343       .  D
C489        H491   1.085       .  S
C490        H492   1.084       .  S
C493        C494   1.203       .  T
C495        C496   1.343       .  D
C495        H497   1.087       .  S
C496        H498   1.087       .  S
C499        C500   1.340       .  D
C499        H501   1.088       .  S
C500        H502   1.086       .  S
C503        C504   1.207       .  T
C505        C506   1.344       .  D
C505        H507   1.085       .  S
C506        H508   1.086       .  S
C509        C510   1.335       .  D
C509        H511   1.087       .  S
C510        H512   1.087       .  S
C513        C514   1.208       .  T
C515        C516   1.345       .  D
C515        H517   1.087       .  S
C516        H518   1.086       .  S
C519        C520   1.341       .  D
C519        H521   1.086       .  S
C520        H522   1.088       .  S
C523        C524   1.201       .  T
C525        C526   1.201       .  T
C527        C528   1.210       .  T
C529        C530   1.206       .  T
C531        C532   1.209       .  T
C533        C534   1.202       .  T
C535        C536   1.206       .  T
C537        C538   1.205       .  T
C539        C540   1.210       .  T
C541        C542   1.209       .  T
C542       C1441   1.460       .  S
C543        C544   1.205       .  T
C545        C546   1.205       .  T
C547       C1439   1.459       .  S
C547        C548   1.209       .  T
O549        C576   1.269       .  A
O549       Mn575   2.087       .  S
C550        O583   1.271       .  A
C550        O580   1.271       .  A
C550        C822   1.441       .  S
O551       Mn558   2.159   1_556  S
O551       Mn569   2.137       .  S
O551       Mn847   2.158       .  S
O551       Mn849   2.135       .  S
O552        C562   1.270       .  A
O552       Mn860   2.098       .  S
O553        C576   1.270       .  A
O553       Mn843   2.095       .  S
O554        C581   1.253       .  A
O554       Mn573   2.104       .  S
O555       Mn860   1.965       .  S
O555       Mn575   1.970       .  S
O555        C571   1.218       .  S
C556        O559   1.252       .  A
C556        C818   1.433       .  S
C556        O582   1.216       .  S
O557       Mn851   2.136       .  S
O557       Mn832   2.158       .  S
O557       Mn591   2.135       .  S
O557       Mn573   2.158       .  S
Mn558       O587   2.095       .  S
Mn558       O563   2.093       .  S
Mn558       O590   2.089       .  S
Mn558       O831   2.157   1_554  S
Mn558       O838   2.156   1_554  S
O559       Mn573   2.100       .  S
O560        C562   1.268       .  A
O560       Mn567   2.087       .  S
C561        O587   1.251       .  A
C561        C820   1.432       .  S
C561        O574   1.216       .  S
C562        C815   1.435       .  S
O563        C588   1.249       .  A
O564       Mn832   2.156       .  S
O564       Mn567   2.134       .  S
O564       Mn860   2.136       .  S
O564       Mn573   2.163       .  S
O565       Mn569   1.960   1_554  S
O565       Mn865   1.955   1_554  S
O565        C588   1.214       .  S
C566        O592   1.269       .  A
C566        O568   1.267       .  A
C566        C811   1.427       .  S
Mn567       O854   2.098       .  S
Mn567       O582   1.961       .  S
Mn567       O848   1.961       .  S
O568       Mn591   2.080       .  S
Mn569       O827   2.095       .  S
Mn569       O585   2.103   1_556  S
Mn569       O853   1.967       .  S
O570        C572   1.271       .  A
O570       Mn849   2.101   1_554  S
C571        O589   1.252       .  A
C571        C806   1.437       .  S
C572        O585   1.271       .  A
C572        C801   1.444       .  S
Mn573       O589   2.099       .  S
Mn573       O825   2.158       .  S
O574       Mn841   1.960   1_554  S
O574       Mn577   1.961   1_554  S
Mn575       O844   2.100       .  S
Mn575       O825   2.135       .  S
Mn575       O867   1.955       .  S
C576        C803   1.433       .  S
Mn577       O584   2.085   1_556  S
Mn577       O866   2.090       .  S
Mn577       O831   2.136       .  S
Mn577       O856   1.957       .  S
C578        O584   1.267       .  A
C578        O594   1.272       .  A
C578        C810   1.435       .  S
O579       Mn843   1.967       .  S
O579       Mn591   1.970       .  S
O579        C581   1.219       .  S
O580       Mn841   2.098   1_554  S
C581        C814   1.441       .  S
O582       Mn851   1.957       .  S
O583       Mn586   2.101   1_554  S
Mn586       O826   2.098       .  S
Mn586       O838   2.136       .  S
Mn586       O829   1.966       .  S
Mn586       O593   1.961   1_556  S
C588        C807   1.428       .  S
O590        C595   1.250       .  A
Mn591       O868   2.102       .  S
Mn591       O839   1.955       .  S
O592       Mn851   2.091       .  S
O593       Mn849   1.955   1_554  S
O593        C595   1.215       .  S
O594       Mn865   2.101   1_554  S
C595        C800   1.425       .  S
C596        C790   1.486       .  S
C596        C797   1.449       .  S
C597        C793   1.472       .  S
C597        C809   1.452       .  S
C598        C784   1.467       .  S
C598        C787   1.449       .  S
C599        C779   1.478       .  S
C599        C808   1.439       .  S
C600        C774   1.476       .  S
C600        C777   1.459       .  S
C601        C770   1.493       .  S
C601        C812   1.450       .  S
C602        C763   1.484       .  S
C602        C767   1.441       .  S
C603        C759   1.477       .  S
C603        C813   1.455       .  S
C604        C753   1.477       .  S
C604        C799   1.437       .  S
C604        C605   1.354       .  D
C605        C749   1.469       .  S
C605        C758   1.449       .  S
C606        C744   1.489       .  S
C606        C802   1.464       .  S
C606        C607   1.356       .  D
C607        C739   1.489       .  S
C607        C747   1.454       .  S
C608        C729   1.489       .  S
C608        C737   1.441       .  S
C608        C609   1.360       .  D
C609        C734   1.472       .  S
C609        C805   1.452       .  S
C610        C723   1.492       .  S
C610        C804   1.455       .  S
C610        C611   1.357       .  D
C611        C719   1.491       .  S
C611        C727   1.464       .  S
C612        C750   1.485       .  S
C612        C789   1.478       .  S
C612        C613   1.359       .  D
C613        C730   1.498       .  S
C613        C773   1.496       .  S
C614        C709   1.473       .  S
C614        C718   1.454       .  S
C614       C1711   1.363   1_455  D
C615        C713   1.496       .  S
C615        C819   1.446       .  S
C615       C1710   1.363       .  D
C616        C699   1.494       .  S
C616        C707   1.459       .  S
C616        C617   1.357   1_455  D
C617       C1799   1.488       .  S
C617       C1917   1.461       .  S
C618        C689   1.482       .  S
C618        C697   1.457       .  S
C618        C619   1.354   1_455  D
C619       C1789   1.489       .  S
C619       C1912   1.455       .  S
C620        C684   1.470       .  S
C620        C817   1.445       .  S
C620       C1717   1.354       .  D
C621        C680   1.476       .  S
C621        C687   1.441       .  S
C621       C1716   1.354   1_455  D
C622        C690   1.484       .  S
C622        C764   1.503       .  S
C622        C623   1.358       .  D
C623        C700   1.483       .  S
C623        C783   1.477       .  S
C624        C710   1.478       .  S
C624        C740   1.480       .  S
C624        C625   1.360       .  D
C625        C679   1.499       .  S
C625        C720   1.484       .  S
C626        C714   1.500       .  S
C626        C794   1.494       .  S
C626        C627   1.360       .  D
C627        C683   1.491       .  S
C627        C769   1.485       .  S
C628        C704   1.485       .  S
C628        C754   1.501       .  S
C628        C629   1.359       .  D
C629        C694   1.478       .  S
C629        C733   1.477       .  S
C630        C743   1.485       .  S
C630        C780   1.502       .  S
C630        C631   1.360       .  D
C631        C724   1.481       .  S
C631        C760   1.477       .  S
O632        C659   1.267       .  A
O632       Mn658   2.083       .  S
C633        O666   1.270       .  A
C633        O663   1.272       .  A
C633        C778   1.442       .  S
O634       Mn641   2.158       .  S
O634       Mn652   2.138       .  S
O634       Mn930   2.161       .  S
O634       Mn932   2.134       .  S
O635        C645   1.269       .  A
O635       Mn943   2.087       .  S
O636        C659   1.270       .  A
O636       Mn926   2.098   1_554  S
O637        C664   1.252       .  A
O637       Mn656   2.099       .  S
O638       Mn943   1.962       .  S
O638       Mn658   1.967       .  S
O638        C654   1.219       .  S
C639        O642   1.253       .  A
C639        C788   1.437       .  S
C639        O665   1.216       .  S
O640       Mn660   2.135       .  S
O640       Mn641   2.159       .  S
O640       Mn948   2.136       .  S
O640       Mn930   2.156       .  S
Mn641       O670   2.098       .  S
Mn641       O646   2.090       .  S
Mn641       O673   2.093       .  S
Mn641       O647   2.157       .  S
O642       Mn656   2.105       .  S
O643        C645   1.267       .  A
O643       Mn650   2.080       .  S
C644        O670   1.250       .  A
C644        C768   1.429       .  S
C644        O657   1.213       .  S
C645        C798   1.426       .  S
O646        C671   1.250       .  A
O647       Mn924   2.133       .  S
O647       Mn669   2.136       .  S
O647       Mn930   2.163       .  S
O648       Mn652   1.964       .  S
O648       Mn948   1.960       .  S
O648        C671   1.217       .  S
C649        O675   1.271       .  A
C649        O651   1.270       .  A
C649        C708   1.437       .  S
Mn650       O937   2.099   1_554  S
Mn650       O921   2.133       .  S
Mn650       O665   1.965       .  S
Mn650       O931   1.955   1_554  S
O651       Mn674   2.092       .  S
Mn652       O910   2.098       .  S
Mn652       O668   2.101       .  S
Mn652       O936   1.966       .  S
O653        C655   1.271       .  A
O653       Mn932   2.101       .  S
C654        O672   1.251       .  A
C654        C757   1.437       .  S
C655        O668   1.271       .  A
C655        C728   1.443       .  S
Mn656       O672   2.096       .  S
Mn656       O908   2.162       .  S
Mn656       O914   2.156       .  S
Mn656       O921   2.160       .  S
O657       Mn924   1.953       .  S
O657       Mn660   1.959       .  S
Mn658       O927   2.098   1_554  S
Mn658       O908   2.136       .  S
Mn658       O950   1.958   1_554  S
C659        C748   1.434       .  S
Mn660       O667   2.096       .  S
Mn660       O949   2.097       .  S
Mn660       O939   1.962       .  S
C661        O667   1.269       .  A
C661        O677   1.270       .  A
C661        C698   1.439       .  S
O662       Mn926   1.966   1_554  S
O662       Mn674   1.970       .  S
O662        C664   1.219       .  S
O663       Mn924   2.104       .  S
C664        C717   1.439       .  S
O665       Mn934   1.963       .  S
O666       Mn669   2.096       .  S
Mn669       O909   2.090       .  S
Mn669       O912   1.963       .  S
Mn669       O676   1.958       .  S
C671        C688   1.430       .  S
O673        C678   1.251       .  A
Mn674       O951   2.098   1_554  S
Mn674       O914   2.136       .  S
Mn674       O922   1.961   1_554  S
O675       Mn934   2.098       .  S
O676       Mn932   1.956       .  S
O676        C678   1.215       .  S
O677       Mn948   2.098       .  S
C678        C738   1.427       .  S
C679        C680   1.343       .  D
C679        H681   1.086       .  S
C680        H682   1.086       .  S
C683        C684   1.338       .  D
C683        H685   1.087       .  S
C684        H686   1.087       .  S
C687        C688   1.203       .  T
C689        C690   1.339       .  D
C689        H691   1.086       .  S
C690        H692   1.087       .  S
C693       C1715   1.488       .  S
C693        C694   1.342       .  D
C693        H695   1.086       .  S
C694        H696   1.087       .  S
C697        C698   1.209       .  T
C699        C700   1.343       .  D
C699        H701   1.086       .  S
C700        H702   1.087       .  S
C703       C1713   1.489       .  S
C703        C704   1.340       .  D
C703        H705   1.086       .  S
C704        H706   1.087       .  S
C707        C708   1.207       .  T
C709        C710   1.338       .  D
C709        H711   1.087       .  S
C710        H712   1.087       .  S
C713        C714   1.347       .  D
C713        H715   1.088       .  S
C714        H716   1.080       .  S
C717        C718   1.208       .  T
C719        C720   1.340       .  D
C719        H721   1.086       .  S
C720        H722   1.087       .  S
C723        C724   1.343       .  D
C723        H725   1.086       .  S
C724        H726   1.087       .  S
C727        C728   1.211       .  T
C729        C730   1.343       .  D
C729        H731   1.087       .  S
C730        H732   1.081       .  S
C733        C734   1.338       .  D
C733        H735   1.088       .  S
C734        H736   1.087       .  S
C737        C738   1.202       .  T
C739        C740   1.343       .  D
C739        H741   1.086       .  S
C740        H742   1.087       .  S
C743        C744   1.340       .  D
C743        H745   1.087       .  S
C744        H746   1.086       .  S
C747        C748   1.206       .  T
C749        C750   1.338       .  D
C749        H751   1.087       .  S
C750        H752   1.087       .  S
C753        C754   1.342       .  D
C753        H755   1.085       .  S
C754        H756   1.085       .  S
C757        C758   1.207       .  T
C759        C760   1.338       .  D
C759        H761   1.087       .  S
C760        H762   1.087       .  S
C763        C764   1.343       .  D
C763        H765   1.085       .  S
C764        H766   1.085       .  S
C767        C768   1.202       .  T
C769        C770   1.345       .  D
C769        H771   1.087       .  S
C770        H772   1.086       .  S
C773        C774   1.342       .  D
C773        H775   1.087       .  S
C774        H776   1.086       .  S
C777        C778   1.210       .  T
C779        C780   1.344       .  D
C779        H781   1.085       .  S
C780        H782   1.086       .  S
C783        C784   1.334       .  D
C783        H785   1.088       .  S
C784        H786   1.087       .  S
C787        C788   1.207       .  T
C789        C790   1.340       .  D
C789        H791   1.087       .  S
C790        H792   1.086       .  S
C793        C794   1.340       .  D
C793        H795   1.086       .  S
C794        H796   1.088       .  S
C797        C798   1.201       .  T
C799        C800   1.200       .  T
C801        C802   1.212       .  T
C803        C804   1.206       .  T
C805        C806   1.207       .  T
C807        C808   1.202       .  T
C809        C810   1.206       .  T
C811        C812   1.202       .  T
C813        C814   1.210       .  T
C815        C816   1.207       .  T
C816       C1715   1.457       .  S
C817        C818   1.205       .  T
C819        C820   1.204       .  T
C821       C1713   1.461       .  S
C821        C822   1.210       .  T
O823        C850   1.269       .  A
O823       Mn849   2.088       .  S
C824        O857   1.271       .  A
C824        O854   1.271       .  A
C824       C1096   1.441       .  S
O825       Mn832   2.159       .  S
O825       Mn843   2.137       .  S
O826        C836   1.270       .  A
O827        C850   1.270       .  A
O828        C855   1.253       .  A
O828       Mn847   2.103       .  S
O829       Mn849   1.970       .  S
O829        C845   1.218       .  S
C830        O833   1.252       .  A
C830       C1092   1.433       .  S
C830        O856   1.216       .  S
O831       Mn865   2.135       .  S
O831       Mn847   2.159       .  S
Mn832       O861   2.095       .  S
Mn832       O837   2.093       .  S
Mn832       O864   2.093       .  S
O833       Mn847   2.100       .  S
O834        C836   1.268       .  A
O834       Mn841   2.085       .  S
C835        O861   1.251       .  A
C835       C1094   1.432       .  S
C835        O848   1.216       .  S
C836       C1089   1.435       .  S
O837        C862   1.250       .  A
O838       Mn841   2.134       .  S
O838       Mn847   2.163       .  S
O839       Mn843   1.960       .  S
O839        C862   1.214       .  S
C840        O866   1.269       .  A
C840        O842   1.267       .  A
C840       C1085   1.427       .  S
Mn841       O856   1.961       .  S
O842       Mn865   2.080       .  S
Mn843       O859   2.101       .  S
O844        C846   1.271       .  A
C845        O863   1.252       .  A
C845       C1080   1.439       .  S
C846        O859   1.271       .  A
C846       C1075   1.443       .  S
Mn847       O863   2.100       .  S
O848       Mn851   1.961       .  S
C850       C1077   1.434       .  S
Mn851       O858   2.086       .  S
C852        O858   1.268       .  A
C852        O868   1.272       .  A
C852       C1084   1.436       .  S
O853       Mn865   1.970       .  S
O853        C855   1.219       .  S
C855       C1088   1.440       .  S
O857       Mn860   2.100       .  S
Mn860       O867   1.961       .  S
C862       C1081   1.428       .  S
O864        C869   1.250       .  A
O867        C869   1.215       .  S
C869       C1074   1.428       .  S
C870       C1064   1.492       .  S
C870       C1071   1.451       .  S
C871       C1067   1.472       .  S
C871       C1083   1.453       .  S
C872       C1058   1.468       .  S
C872       C1061   1.449       .  S
C873       C1053   1.478       .  S
C873       C1082   1.438       .  S
C874       C1048   1.475       .  S
C874       C1051   1.451       .  S
C875       C1044   1.493       .  S
C875       C1086   1.450       .  S
C876       C1037   1.484       .  S
C876       C1041   1.442       .  S
C877       C1033   1.477       .  S
C877       C1087   1.454       .  S
C878       C1027   1.477       .  S
C878       C1073   1.439       .  S
C878        C879   1.355       .  D
C879       C1023   1.472       .  S
C879       C1032   1.448       .  S
C880       C1018   1.489       .  S
C880       C1076   1.463       .  S
C880        C881   1.356       .  D
C881       C1013   1.488       .  S
C881       C1021   1.455       .  S
C882       C1003   1.494       .  S
C882       C1011   1.444       .  S
C882        C883   1.361       .  D
C883       C1008   1.471       .  S
C883       C1079   1.453       .  S
C884        C997   1.492       .  S
C884       C1078   1.456       .  S
C884        C885   1.357       .  D
C885        C993   1.490       .  S
C885       C1001   1.463       .  S
C886       C1024   1.487       .  S
C886       C1063   1.481       .  S
C886        C887   1.359       .  D
C887       C1004   1.500       .  S
C887       C1047   1.495       .  S
C888        C983   1.473       .  S
C888        C992   1.455       .  S
C888       C1985   1.363   1_455  D
C889        C987   1.497       .  S
C889       C1093   1.446       .  S
C889       C1984   1.363       .  D
C890        C973   1.494       .  S
C890        C981   1.459       .  S
C890        C891   1.357   1_455  D
C891       C2073   1.488       .  S
C891       C2191   1.461       .  S
C892        C963   1.483       .  S
C892        C971   1.458       .  S
C892        C893   1.354   1_455  D
C893       C2063   1.489       .  S
C893       C2186   1.456       .  S
C894        C958   1.470       .  S
C894       C1091   1.445       .  S
C894       C1991   1.354       .  D
C895        C954   1.476       .  S
C895        C961   1.441       .  S
C895       C1990   1.354   1_455  D
C896        C964   1.484       .  S
C896       C1038   1.503       .  S
C896        C897   1.359       .  D
C897        C974   1.484       .  S
C897       C1057   1.478       .  S
C898        C984   1.478       .  S
C898       C1014   1.480       .  S
C898        C899   1.360       .  D
C899        C953   1.497       .  S
C899        C994   1.483       .  S
C900        C988   1.501       .  S
C900       C1068   1.494       .  S
C900        C901   1.360       .  D
C901        C957   1.491       .  S
C901       C1043   1.485       .  S
C902        C978   1.484       .  S
C902       C1028   1.501       .  S
C902        C903   1.359       .  D
C903        C968   1.478       .  S
C903       C1007   1.477       .  S
C904       C1017   1.485       .  S
C904       C1054   1.502       .  S
C904        C905   1.360       .  D
C905        C998   1.481       .  S
C905       C1034   1.477       .  S
O906        C933   1.268       .  A
O906       Mn932   2.085       .  S
C907        O940   1.268       .  A
C907        O937   1.271       .  A
C907       C1052   1.434       .  S
O908       Mn915   2.158   1_554  S
O908       Mn926   2.139   1_554  S
O909        C919   1.269       .  A
O910        C933   1.270       .  A
O911        C938   1.253       .  A
O911       Mn930   2.101       .  S
O912       Mn932   1.968       .  S
O912        C928   1.218       .  S
C913        O916   1.253       .  A
C913       C1062   1.436       .  S
C913        O939   1.217       .  S
O914       Mn934   2.135       .  S
O914       Mn915   2.158   1_554  S
Mn915       O944   2.100       .  S
Mn915       O920   2.089       .  S
Mn915       O947   2.091       .  S
Mn915       O921   2.157   1_556  S
O916       Mn930   2.103       .  S
O917        C919   1.267       .  A
O917       Mn924   2.079       .  S
C918        O944   1.251       .  A
C918       C1042   1.430       .  S
C918        O931   1.213       .  S
C919       C1072   1.427       .  S
O920        C945   1.250       .  A
O921       Mn943   2.138       .  S
O922       Mn926   1.964       .  S
O922        C945   1.217       .  S
C923        O949   1.271       .  A
C923        O925   1.270       .  A
C923        C982   1.437       .  S
Mn924       O939   1.966       .  S
O925       Mn948   2.092       .  S
Mn926       O942   2.101       .  S
O927        C929   1.271       .  A
C928        O946   1.251       .  A
C928       C1031   1.436       .  S
C929        O942   1.271       .  A
C929       C1002   1.442       .  S
Mn930       O946   2.098       .  S
O931       Mn934   1.959   1_556  S
C933       C1022   1.434       .  S
Mn934       O941   2.097   1_554  S
C935        O941   1.270       .  A
C935        O951   1.270       .  A
C935        C972   1.440       .  S
O936       Mn948   1.970       .  S
O936        C938   1.219       .  S
C938        C991   1.440       .  S
O940       Mn943   2.086   1_556  S
Mn943       O950   1.959   1_554  S
C945        C962   1.430       .  S
O947        C952   1.250       .  A
O950        C952   1.216       .  S
C952       C1012   1.430       .  S
C953        C954   1.342       .  D
C953        H955   1.086       .  S
C954        H956   1.086       .  S
C957        C958   1.338       .  D
C957        H959   1.087       .  S
C958        H960   1.086       .  S
C961        C962   1.203       .  T
C963        C964   1.339       .  D
C963        H965   1.086       .  S
C964        H966   1.087       .  S
C967       C1989   1.489       .  S
C967        C968   1.342       .  D
C967        H969   1.086       .  S
C968        H970   1.087       .  S
C971        C972   1.209       .  T
C973        C974   1.343       .  D
C973        H975   1.086       .  S
C974        H976   1.087       .  S
C977       C1987   1.487       .  S
C977        C978   1.340       .  D
C977        H979   1.086       .  S
C978        H980   1.087       .  S
C981        C982   1.207       .  T
C983        C984   1.338       .  D
C983        H985   1.087       .  S
C984        H986   1.087       .  S
C987        C988   1.347       .  D
C987        H989   1.088       .  S
C988        H990   1.080       .  S
C991        C992   1.209       .  T
C993        C994   1.341       .  D
C993        H995   1.086       .  S
C994        H996   1.087       .  S
C997        C998   1.343       .  D
C997        H999   1.086       .  S
C998       H1000   1.087       .  S
C1001      C1002   1.210       .  T
C1003      C1004   1.345       .  D
C1003      H1005   1.087       .  S
C1004      H1006   1.080       .  S
C1007      C1008   1.338       .  D
C1007      H1009   1.088       .  S
C1008      H1010   1.087       .  S
C1011      C1012   1.203       .  T
C1013      C1014   1.343       .  D
C1013      H1015   1.086       .  S
C1014      H1016   1.087       .  S
C1017      C1018   1.340       .  D
C1017      H1019   1.087       .  S
C1018      H1020   1.086       .  S
C1021      C1022   1.206       .  T
C1023      C1024   1.338       .  D
C1023      H1025   1.087       .  S
C1024      H1026   1.087       .  S
C1027      C1028   1.342       .  D
C1027      H1029   1.085       .  S
C1028      H1030   1.085       .  S
C1031      C1032   1.207       .  T
C1033      C1034   1.338       .  D
C1033      H1035   1.087       .  S
C1034      H1036   1.087       .  S
C1037      C1038   1.343       .  D
C1037      H1039   1.085       .  S
C1038      H1040   1.084       .  S
C1041      C1042   1.203       .  T
C1043      C1044   1.345       .  D
C1043      H1045   1.087       .  S
C1044      H1046   1.086       .  S
C1047      C1048   1.341       .  D
C1047      H1049   1.087       .  S
C1048      H1050   1.086       .  S
C1051      C1052   1.206       .  T
C1053      C1054   1.344       .  D
C1053      H1055   1.085       .  S
C1054      H1056   1.086       .  S
C1057      C1058   1.335       .  D
C1057      H1059   1.087       .  S
C1058      H1060   1.087       .  S
C1061      C1062   1.207       .  T
C1063      C1064   1.344       .  D
C1063      H1065   1.087       .  S
C1064      H1066   1.087       .  S
C1067      C1068   1.340       .  D
C1067      H1069   1.086       .  S
C1068      H1070   1.088       .  S
C1071      C1072   1.202       .  T
C1073      C1074   1.202       .  T
C1075      C1076   1.211       .  T
C1077      C1078   1.206       .  T
C1079      C1080   1.208       .  T
C1081      C1082   1.202       .  T
C1083      C1084   1.207       .  T
C1085      C1086   1.202       .  T
C1087      C1088   1.209       .  T
C1089      C1090   1.206       .  T
C1090      C1989   1.456       .  S
C1091      C1092   1.205       .  T
C1093      C1094   1.204       .  T
C1095      C1987   1.461       .  S
C1095      C1096   1.210       .  T
O1097      C1124   1.269       .  A
O1097     Mn1123   2.086       .  S
C1098      O1131   1.271       .  A
C1098      O1128   1.271       .  A
C1098      C1370   1.441       .  S
O1099     Mn1106   2.159   1_556  S
O1099     Mn1117   2.136       .  S
O1099     Mn1395   2.158       .  S
O1099     Mn1397   2.135       .  S
O1100      C1110   1.270       .  A
O1100     Mn1408   2.098       .  S
O1101      C1124   1.269       .  A
O1101     Mn1391   2.091       .  S
O1102      C1129   1.253       .  A
O1102     Mn1121   2.103       .  S
O1103     Mn1408   1.965       .  S
O1103     Mn1123   1.970       .  S
O1103      C1119   1.218       .  S
C1104      O1107   1.252       .  A
C1104      C1366   1.433       .  S
C1104      O1130   1.216       .  S
O1105     Mn1399   2.136       .  S
O1105     Mn1380   2.158       .  S
O1105     Mn1139   2.135       .  S
O1105     Mn1121   2.159       .  S
Mn1106     O1135   2.095       .  S
Mn1106     O1111   2.094       .  S
Mn1106     O1138   2.091       .  S
Mn1106     O1379   2.158   1_554  S
Mn1106     O1386   2.156   1_554  S
O1107     Mn1121   2.100       .  S
O1108      C1110   1.268       .  A
O1108     Mn1115   2.086       .  S
C1109      O1135   1.251       .  A
C1109      C1368   1.432       .  S
C1109      O1122   1.216       .  S
C1110      C1363   1.435       .  S
O1111      C1136   1.250       .  A
O1112     Mn1380   2.156       .  S
O1112     Mn1115   2.134       .  S
O1112     Mn1408   2.136       .  S
O1112     Mn1121   2.163       .  S
O1113     Mn1117   1.959   1_554  S
O1113     Mn1413   1.956   1_554  S
O1113      C1136   1.214       .  S
C1114      O1140   1.270       .  A
C1114      O1116   1.267       .  A
C1114      C1359   1.427       .  S
Mn1115     O1402   2.097       .  S
Mn1115     O1130   1.961       .  S
Mn1115     O1396   1.961       .  S
O1116     Mn1139   2.080       .  S
Mn1117     O1375   2.094       .  S
Mn1117     O1133   2.102   1_556  S
Mn1117     O1401   1.967       .  S
O1118      C1120   1.270       .  A
O1118     Mn1397   2.098   1_554  S
C1119      O1137   1.252       .  A
C1119      C1354   1.439       .  S
C1120      O1133   1.271       .  A
C1120      C1349   1.443       .  S
Mn1121     O1137   2.100       .  S
Mn1121     O1373   2.158       .  S
O1122     Mn1389   1.961   1_554  S
O1122     Mn1125   1.961   1_554  S
Mn1123     O1392   2.101       .  S
Mn1123     O1373   2.135       .  S
Mn1123     O1415   1.955       .  S
C1124      C1351   1.431       .  S
Mn1125     O1132   2.084   1_556  S
Mn1125     O1414   2.091       .  S
Mn1125     O1379   2.136       .  S
Mn1125     O1404   1.956       .  S
C1126      O1132   1.267       .  A
C1126      O1142   1.272       .  A
C1126      C1358   1.435       .  S
O1127     Mn1391   1.968       .  S
O1127     Mn1139   1.970       .  S
O1127      C1129   1.220       .  S
O1128     Mn1389   2.098   1_554  S
C1129      C1362   1.441       .  S
O1130     Mn1399   1.957       .  S
O1131     Mn1134   2.100   1_554  S
Mn1134     O1374   2.097       .  S
Mn1134     O1386   2.136       .  S
Mn1134     O1377   1.965       .  S
Mn1134     O1141   1.961   1_556  S
C1136      C1355   1.428       .  S
O1138      C1143   1.250       .  A
Mn1139     O1416   2.101       .  S
Mn1139     O1387   1.955       .  S
O1140     Mn1399   2.091       .  S
O1141     Mn1397   1.956   1_554  S
O1141      C1143   1.216       .  S
O1142     Mn1413   2.101   1_554  S
C1143      C1348   1.427       .  S
C1144      C1338   1.491       .  S
C1144      C1345   1.449       .  S
C1144      C1693   1.353       .  D
C1145      C1341   1.472       .  S
C1145      C1357   1.452       .  S
C1145      C1692   1.353   1_545  D
C1146      C1332   1.469       .  S
C1146      C1335   1.450       .  S
C1146      C1695   1.354       .  D
C1147      C1327   1.477       .  S
C1147      C1356   1.439       .  S
C1147      C1694   1.353   1_545  D
C1148      C1322   1.473       .  S
C1148      C1325   1.454       .  S
C1148      C1697   1.354       .  D
C1149      C1318   1.492       .  S
C1149      C1360   1.451       .  S
C1149      C1696   1.354   1_545  D
C1150      C1311   1.484       .  S
C1150      C1315   1.441       .  S
C1150      C1699   1.358       .  D
C1151      C1307   1.478       .  S
C1151      C1361   1.455       .  S
C1151      C1698   1.359   1_545  D
C1152      C1301   1.478       .  S
C1152      C1347   1.439       .  S
C1152      C1153   1.355       .  D
C1153      C1297   1.471       .  S
C1153      C1306   1.449       .  S
C1154      C1292   1.492       .  S
C1154      C1350   1.462       .  S
C1154      C1155   1.357       .  D
C1155      C1287   1.485       .  S
C1155      C1295   1.455       .  S
C1156      C1277   1.494       .  S
C1156      C1285   1.444       .  S
C1156      C1157   1.361       .  D
C1157      C1282   1.472       .  S
C1157      C1353   1.453       .  S
C1158      C1271   1.491       .  S
C1158      C1352   1.453       .  S
C1158      C1159   1.355       .  D
C1159      C1267   1.488       .  S
C1159      C1275   1.464       .  S
C1160      C1298   1.487       .  S
C1160      C1337   1.481       .  S
C1160      C1161   1.359       .  D
C1161      C1278   1.500       .  S
C1161      C1321   1.494       .  S
C1162      C1257   1.485       .  S
C1162      C1266   1.438       .  S
C1163      C1261   1.496       .  S
C1163      C1367   1.446       .  S
C1164      C1247   1.493       .  S
C1164      C1255   1.462       .  S
C1164      C1165   1.357       .  D
C1166      C1237   1.485       .  S
C1166      C1245   1.456       .  S
C1166      C1167   1.354       .  D
C1168      C1232   1.470       .  S
C1168      C1365   1.445       .  S
C1169      C1228   1.469       .  S
C1169      C1235   1.450       .  S
C1170      C1238   1.486       .  S
C1170      C1312   1.503       .  S
C1170      C1171   1.359       .  D
C1171      C1248   1.482       .  S
C1171      C1331   1.478       .  S
C1172      C1258   1.501       .  S
C1172      C1288   1.489       .  S
C1172      C1173   1.360       .  D
C1173      C1227   1.483       .  S
C1173      C1268   1.480       .  S
C1174      C1262   1.500       .  S
C1174      C1342   1.494       .  S
C1174      C1175   1.359       .  D
C1175      C1231   1.491       .  S
C1175      C1317   1.484       .  S
C1176      C1252   1.484       .  S
C1176      C1302   1.501       .  S
C1176      C1177   1.360       .  D
C1177      C1242   1.479       .  S
C1177      C1281   1.478       .  S
C1178      C1291   1.487       .  S
C1178      C1328   1.501       .  S
C1178      C1179   1.361       .  D
C1179      C1272   1.479       .  S
C1179      C1308   1.478       .  S
O1180      C1207   1.269       .  A
O1180     Mn1206   2.090       .  S
C1181      O1214   1.268       .  A
C1181      O1211   1.272       .  A
C1181      C1326   1.437       .  S
O1182     Mn1189   2.157       .  S
O1182     Mn1200   2.139       .  S
O1182     Mn1478   2.163       .  S
O1182     Mn1480   2.135       .  S
O1183      C1193   1.269       .  A
O1183     Mn1491   2.089       .  S
O1184      C1207   1.270       .  A
O1184     Mn1474   2.101   1_554  S
O1185      C1212   1.251       .  A
O1185     Mn1204   2.092       .  S
O1186     Mn1491   1.960       .  S
O1186     Mn1206   1.966       .  S
O1186      C1202   1.217       .  S
C1187      O1190   1.253       .  A
C1187      C1336   1.438       .  S
C1187      O1213   1.217       .  S
O1188     Mn1208   2.136       .  S
O1188     Mn1189   2.158       .  S
O1188     Mn1496   2.136       .  S
O1188     Mn1478   2.156       .  S
Mn1189     O1218   2.100       .  S
Mn1189     O1194   2.100       .  S
Mn1189     O1221   2.092       .  S
Mn1189     O1195   2.161       .  S
O1190     Mn1204   2.103       .  S
O1191      C1193   1.266       .  A
O1191     Mn1198   2.076       .  S
C1192      O1218   1.251       .  A
C1192      C1316   1.430       .  S
C1192      O1205   1.213       .  S
C1193      C1346   1.425       .  S
O1194      C1219   1.252       .  A
O1195     Mn1472   2.133       .  S
O1195     Mn1217   2.137       .  S
O1195     Mn1478   2.161       .  S
O1196     Mn1200   1.964       .  S
O1196     Mn1496   1.966       .  S
O1196      C1219   1.218       .  S
C1197      O1223   1.271       .  A
C1197      O1199   1.270       .  A
C1197      C1256   1.440       .  S
Mn1198     O1485   2.101   1_554  S
Mn1198     O1469   2.134       .  S
Mn1198     O1213   1.966       .  S
Mn1198     O1479   1.955   1_554  S
O1199     Mn1222   2.096   1_554  S
Mn1200     O1458   2.095       .  S
Mn1200     O1216   2.102       .  S
Mn1200     O1484   1.967       .  S
O1201      C1203   1.270       .  A
O1201     Mn1480   2.097       .  S
C1202      O1220   1.251       .  A
C1202      C1305   1.437       .  S
C1203      O1216   1.271       .  A
C1203      C1276   1.442       .  S
Mn1204     O1220   2.100       .  S
Mn1204     O1456   2.164       .  S
Mn1204     O1462   2.158       .  S
Mn1204     O1469   2.157       .  S
O1205     Mn1472   1.953       .  S
O1205     Mn1208   1.960       .  S
Mn1206     O1475   2.099   1_554  S
Mn1206     O1456   2.134       .  S
Mn1206     O1498   1.961   1_554  S
C1207      C1296   1.438       .  S
Mn1208     O1215   2.093       .  S
Mn1208     O1497   2.097       .  S
Mn1208     O1487   1.962       .  S
C1209      O1215   1.269       .  A
C1209      O1225   1.270       .  A
C1209      C1246   1.438       .  S
O1210     Mn1474   1.957   1_554  S
O1210     Mn1222   1.955   1_554  S
O1210      C1212   1.214       .  S
O1211     Mn1472   2.102       .  S
C1212      C1265   1.425       .  S
O1213     Mn1482   1.963       .  S
O1214     Mn1217   2.088       .  S
Mn1217     O1457   2.091       .  S
Mn1217     O1460   1.959       .  S
Mn1217     O1224   1.961       .  S
C1219      C1236   1.438       .  S
O1221      C1226   1.251       .  A
Mn1222     O1499   2.089       .  S
Mn1222     O1462   2.134   1_556  S
Mn1222     O1470   1.965       .  S
O1223     Mn1482   2.100       .  S
O1224     Mn1480   1.959       .  S
O1224      C1226   1.216       .  S
O1225     Mn1496   2.097       .  S
C1226      C1286   1.430       .  S
C1227      C1228   1.338       .  D
C1227      H1229   1.087       .  S
C1228      H1230   1.087       .  S
C1231      C1232   1.338       .  D
C1231      H1233   1.087       .  S
C1232      H1234   1.087       .  S
C1235      C1236   1.208       .  T
C1237      C1238   1.341       .  D
C1237      H1239   1.086       .  S
C1238      H1240   1.087       .  S
C1241      C1242   1.342       .  D
C1241      H1243   1.086       .  S
C1242      H1244   1.087       .  S
C1245      C1246   1.208       .  T
C1247      C1248   1.342       .  D
C1247      H1249   1.086       .  S
C1248      H1250   1.087       .  S
C1251      C1252   1.340       .  D
C1251      H1253   1.086       .  S
C1252      H1254   1.087       .  S
C1255      C1256   1.209       .  T
C1257      C1258   1.342       .  D
C1257      H1259   1.085       .  S
C1258      H1260   1.082       .  S
C1261      C1262   1.347       .  D
C1261      H1263   1.088       .  S
C1262      H1264   1.080       .  S
C1265      C1266   1.200       .  T
C1267      C1268   1.339       .  D
C1267      H1269   1.086       .  S
C1268      H1270   1.087       .  S
C1271      C1272   1.342       .  D
C1271      H1273   1.086       .  S
C1272      H1274   1.087       .  S
C1275      C1276   1.210       .  T
C1277      C1278   1.345       .  D
C1277      H1279   1.087       .  S
C1278      H1280   1.080       .  S
C1281      C1282   1.338       .  D
C1281      H1283   1.088       .  S
C1282      H1284   1.087       .  S
C1285      C1286   1.203       .  T
C1287      C1288   1.342       .  D
C1287      H1289   1.086       .  S
C1288      H1290   1.087       .  S
C1291      C1292   1.343       .  D
C1291      H1293   1.087       .  S
C1292      H1294   1.086       .  S
C1295      C1296   1.208       .  T
C1297      C1298   1.338       .  D
C1297      H1299   1.087       .  S
C1298      H1300   1.087       .  S
C1301      C1302   1.342       .  D
C1301      H1303   1.085       .  S
C1302      H1304   1.085       .  S
C1305      C1306   1.207       .  T
C1307      C1308   1.339       .  D
C1307      H1309   1.087       .  S
C1308      H1310   1.087       .  S
C1311      C1312   1.343       .  D
C1311      H1313   1.085       .  S
C1312      H1314   1.084       .  S
C1315      C1316   1.203       .  T
C1317      C1318   1.345       .  D
C1317      H1319   1.087       .  S
C1318      H1320   1.086       .  S
C1321      C1322   1.341       .  D
C1321      H1323   1.087       .  S
C1322      H1324   1.086       .  S
C1325      C1326   1.207       .  T
C1327      C1328   1.343       .  D
C1327      H1329   1.084       .  S
C1328      H1330   1.086       .  S
C1331      C1332   1.335       .  D
C1331      H1333   1.087       .  S
C1332      H1334   1.087       .  S
C1335      C1336   1.208       .  T
C1337      C1338   1.345       .  D
C1337      H1339   1.087       .  S
C1338      H1340   1.086       .  S
C1341      C1342   1.340       .  D
C1341      H1343   1.086       .  S
C1342      H1344   1.088       .  S
C1345      C1346   1.200       .  T
C1347      C1348   1.201       .  T
C1349      C1350   1.211       .  T
C1351      C1352   1.204       .  T
C1353      C1354   1.208       .  T
C1355      C1356   1.202       .  T
C1357      C1358   1.206       .  T
C1359      C1360   1.202       .  T
C1361      C1362   1.210       .  T
C1363      C1364   1.206       .  T
C1365      C1366   1.205       .  T
C1367      C1368   1.204       .  T
C1369      C1370   1.210       .  T
O1371      C1398   1.269       .  A
O1371     Mn1397   2.088       .  S
C1372      O1405   1.270       .  A
C1372      O1402   1.271       .  A
C1372      C1644   1.440       .  S
O1373     Mn1380   2.159       .  S
O1373     Mn1391   2.137       .  S
O1374      C1384   1.270       .  A
O1375      C1398   1.270       .  A
O1376      C1403   1.254       .  A
O1376     Mn1395   2.104       .  S
O1377     Mn1397   1.969       .  S
O1377      C1393   1.218       .  S
C1378      O1381   1.252       .  A
C1378      C1640   1.433       .  S
C1378      O1404   1.216       .  S
O1379     Mn1413   2.135       .  S
O1379     Mn1395   2.158       .  S
Mn1380     O1409   2.095       .  S
Mn1380     O1385   2.093       .  S
Mn1380     O1412   2.092       .  S
O1381     Mn1395   2.100       .  S
O1382      C1384   1.268       .  A
O1382     Mn1389   2.086       .  S
C1383      O1409   1.251       .  A
C1383      C1642   1.432       .  S
C1383      O1396   1.216       .  S
C1384      C1637   1.435       .  S
O1385      C1410   1.250       .  A
O1386     Mn1389   2.134       .  S
O1386     Mn1395   2.164       .  S
O1387     Mn1391   1.958       .  S
O1387      C1410   1.214       .  S
C1388      O1414   1.270       .  A
C1388      O1390   1.268       .  A
C1388      C1633   1.428       .  S
Mn1389     O1404   1.960       .  S
O1390     Mn1413   2.082       .  S
Mn1391     O1407   2.103       .  S
O1392      C1394   1.271       .  A
C1393      O1411   1.252       .  A
C1393      C1628   1.438       .  S
C1394      O1407   1.271       .  A
C1394      C1623   1.444       .  S
Mn1395     O1411   2.099       .  S
O1396     Mn1399   1.961       .  S
C1398      C1625   1.434       .  S
Mn1399     O1406   2.085       .  S
C1400      O1406   1.267       .  A
C1400      O1416   1.271       .  A
C1400      C1632   1.435       .  S
O1401     Mn1413   1.970       .  S
O1401      C1403   1.219       .  S
C1403      C1636   1.441       .  S
O1405     Mn1408   2.099       .  S
Mn1408     O1415   1.962       .  S
C1410      C1629   1.428       .  S
O1412      C1417   1.250       .  A
O1415      C1417   1.215       .  S
C1417      C1622   1.427       .  S
C1418      C1612   1.491       .  S
C1418      C1619   1.451       .  S
C1418      C1967   1.354       .  D
C1419      C1615   1.472       .  S
C1419      C1631   1.452       .  S
C1419      C1966   1.353   1_545  D
C1420      C1606   1.468       .  S
C1420      C1609   1.450       .  S
C1420      C1969   1.353       .  D
C1421      C1601   1.478       .  S
C1421      C1630   1.439       .  S
C1421      C1968   1.354   1_545  D
C1422      C1596   1.474       .  S
C1422      C1599   1.453       .  S
C1422      C1971   1.354       .  D
C1423      C1592   1.492       .  S
C1423      C1634   1.451       .  S
C1423      C1970   1.354   1_545  D
C1424      C1585   1.485       .  S
C1424      C1589   1.441       .  S
C1424      C1973   1.358       .  D
C1425      C1581   1.476       .  S
C1425      C1635   1.455       .  S
C1425      C1972   1.358   1_545  D
C1426      C1575   1.477       .  S
C1426      C1621   1.439       .  S
C1426      C1427   1.355       .  D
C1427      C1571   1.471       .  S
C1427      C1580   1.449       .  S
C1428      C1566   1.488       .  S
C1428      C1624   1.464       .  S
C1428      C1429   1.356       .  D
C1429      C1561   1.489       .  S
C1429      C1569   1.453       .  S
C1430      C1551   1.493       .  S
C1430      C1559   1.443       .  S
C1430      C1431   1.361       .  D
C1431      C1556   1.471       .  S
C1431      C1627   1.452       .  S
C1432      C1545   1.491       .  S
C1432      C1626   1.456       .  S
C1432      C1433   1.356       .  D
C1433      C1541   1.491       .  S
C1433      C1549   1.462       .  S
C1434      C1572   1.488       .  S
C1434      C1611   1.481       .  S
C1434      C1435   1.359       .  D
C1435      C1552   1.500       .  S
C1435      C1595   1.495       .  S
C1436      C1531   1.475       .  S
C1436      C1540   1.454       .  S
C1437      C1535   1.497       .  S
C1437      C1641   1.447       .  S
C1438      C1521   1.494       .  S
C1438      C1529   1.460       .  S
C1438      C1439   1.357       .  D
C1440      C1511   1.483       .  S
C1440      C1519   1.454       .  S
C1440      C1441   1.354       .  D
C1442      C1506   1.470       .  S
C1442      C1639   1.444       .  S
C1443      C1502   1.476       .  S
C1443      C1509   1.444       .  S
C1444      C1512   1.485       .  S
C1444      C1586   1.503       .  S
C1444      C1445   1.359       .  D
C1445      C1522   1.484       .  S
C1445      C1605   1.478       .  S
C1446      C1532   1.480       .  S
C1446      C1562   1.480       .  S
C1446      C1447   1.359       .  D
C1447      C1501   1.491       .  S
C1447      C1542   1.482       .  S
C1448      C1536   1.500       .  S
C1448      C1616   1.494       .  S
C1448      C1449   1.360       .  D
C1449      C1505   1.492       .  S
C1449      C1591   1.485       .  S
C1450      C1526   1.484       .  S
C1450      C1576   1.501       .  S
C1450      C1451   1.359       .  D
C1451      C1516   1.478       .  S
C1451      C1555   1.476       .  S
C1452      C1565   1.484       .  S
C1452      C1602   1.502       .  S
C1452      C1453   1.359       .  D
C1453      C1546   1.481       .  S
C1453      C1582   1.477       .  S
O1454      C1481   1.267       .  A
O1454     Mn1480   2.083       .  S
C1455      O1488   1.268       .  A
C1455      O1485   1.272       .  A
C1455      C1600   1.436       .  S
O1456     Mn1463   2.158   1_554  S
O1456     Mn1474   2.136   1_554  S
O1457      C1467   1.269       .  A
O1458      C1481   1.269       .  A
O1459      C1486   1.252       .  A
O1459     Mn1478   2.098       .  S
O1460     Mn1480   1.966       .  S
O1460      C1476   1.218       .  S
C1461      O1464   1.253       .  A
C1461      C1610   1.438       .  S
C1461      O1487   1.216       .  S
O1462     Mn1482   2.135       .  S
O1462     Mn1463   2.159   1_554  S
Mn1463     O1492   2.096       .  S
Mn1463     O1468   2.093       .  S
Mn1463     O1495   2.090       .  S
Mn1463     O1469   2.156   1_556  S
O1464     Mn1478   2.106       .  S
O1465      C1467   1.267       .  A
O1465     Mn1472   2.079       .  S
C1466      O1492   1.250       .  A
C1466      C1590   1.428       .  S
C1466      O1479   1.213       .  S
C1467      C1620   1.428       .  S
O1468      C1493   1.250       .  A
O1469     Mn1491   2.137       .  S
O1470     Mn1474   1.967       .  S
O1470      C1493   1.217       .  S
C1471      O1497   1.270       .  A
C1471      O1473   1.270       .  A
C1471      C1530   1.438       .  S
Mn1472     O1487   1.964       .  S
O1473     Mn1496   2.095       .  S
Mn1474     O1490   2.097       .  S
O1475      C1477   1.271       .  A
C1476      O1494   1.251       .  A
C1476      C1579   1.437       .  S
C1477      O1490   1.270       .  A
C1477      C1550   1.440       .  S
Mn1478     O1494   2.099       .  S
O1479     Mn1482   1.960   1_556  S
C1481      C1570   1.432       .  S
Mn1482     O1489   2.096   1_554  S
C1483      O1489   1.269       .  A
C1483      O1499   1.269       .  A
C1483      C1520   1.435       .  S
O1484     Mn1496   1.970       .  S
O1484      C1486   1.220       .  S
C1486      C1539   1.439       .  S
O1488     Mn1491   2.088   1_556  S
Mn1491     O1498   1.961   1_554  S
C1493      C1510   1.433       .  S
O1495      C1500   1.251       .  A
O1498      C1500   1.217       .  S
C1500      C1560   1.429       .  S
C1501      C1502   1.341       .  D
C1501      H1503   1.086       .  S
C1502      H1504   1.087       .  S
C1505      C1506   1.338       .  D
C1505      H1507   1.087       .  S
C1506      H1508   1.086       .  S
C1509      C1510   1.205       .  T
C1511      C1512   1.340       .  D
C1511      H1513   1.086       .  S
C1512      H1514   1.087       .  S
C1515      C1516   1.342       .  D
C1515      H1517   1.086       .  S
C1516      H1518   1.087       .  S
C1519      C1520   1.206       .  T
C1521      C1522   1.343       .  D
C1521      H1523   1.086       .  S
C1522      H1524   1.087       .  S
C1525      C1526   1.340       .  D
C1525      H1527   1.086       .  S
C1526      H1528   1.087       .  S
C1529      C1530   1.208       .  T
C1531      C1532   1.339       .  D
C1531      H1533   1.087       .  S
C1532      H1534   1.087       .  S
C1535      C1536   1.347       .  D
C1535      H1537   1.088       .  S
C1536      H1538   1.080       .  S
C1539      C1540   1.208       .  T
C1541      C1542   1.341       .  D
C1541      H1543   1.086       .  S
C1542      H1544   1.087       .  S
C1545      C1546   1.343       .  D
C1545      H1547   1.086       .  S
C1546      H1548   1.087       .  S
C1549      C1550   1.210       .  T
C1551      C1552   1.345       .  D
C1551      H1553   1.087       .  S
C1552      H1554   1.080       .  S
C1555      C1556   1.337       .  D
C1555      H1557   1.088       .  S
C1556      H1558   1.087       .  S
C1559      C1560   1.202       .  T
C1561      C1562   1.343       .  D
C1561      H1563   1.086       .  S
C1562      H1564   1.087       .  S
C1565      C1566   1.340       .  D
C1565      H1567   1.087       .  S
C1566      H1568   1.086       .  S
C1569      C1570   1.205       .  T
C1571      C1572   1.338       .  D
C1571      H1573   1.087       .  S
C1572      H1574   1.087       .  S
C1575      C1576   1.342       .  D
C1575      H1577   1.085       .  S
C1576      H1578   1.085       .  S
C1579      C1580   1.207       .  T
C1581      C1582   1.337       .  D
C1581      H1583   1.087       .  S
C1582      H1584   1.087       .  S
C1585      C1586   1.343       .  D
C1585      H1587   1.085       .  S
C1586      H1588   1.084       .  S
C1589      C1590   1.202       .  T
C1591      C1592   1.344       .  D
C1591      H1593   1.087       .  S
C1592      H1594   1.086       .  S
C1595      C1596   1.341       .  D
C1595      H1597   1.087       .  S
C1596      H1598   1.086       .  S
C1599      C1600   1.207       .  T
C1601      C1602   1.344       .  D
C1601      H1603   1.085       .  S
C1602      H1604   1.086       .  S
C1605      C1606   1.335       .  D
C1605      H1607   1.087       .  S
C1606      H1608   1.087       .  S
C1609      C1610   1.208       .  T
C1611      C1612   1.344       .  D
C1611      H1613   1.087       .  S
C1612      H1614   1.087       .  S
C1615      C1616   1.340       .  D
C1615      H1617   1.086       .  S
C1616      H1618   1.088       .  S
C1619      C1620   1.202       .  T
C1621      C1622   1.201       .  T
C1623      C1624   1.212       .  T
C1625      C1626   1.206       .  T
C1627      C1628   1.208       .  T
C1629      C1630   1.202       .  T
C1631      C1632   1.206       .  T
C1633      C1634   1.202       .  T
C1635      C1636   1.210       .  T
C1637      C1638   1.206       .  T
C1639      C1640   1.205       .  T
C1641      C1642   1.204       .  T
C1643      C1644   1.209       .  T
O1645      C1672   1.269       .  A
O1645     Mn1671   2.088       .  S
C1646      O1679   1.271       .  A
C1646      O1676   1.271       .  A
C1646      C1918   1.441       .  S
O1647     Mn1654   2.159   1_556  S
O1647     Mn1665   2.137       .  S
O1647     Mn1943   2.158       .  S
O1647     Mn1945   2.135       .  S
O1648      C1658   1.270       .  A
O1648     Mn1956   2.097       .  S
O1649      C1672   1.270       .  A
O1649     Mn1939   2.095       .  S
O1650      C1677   1.253       .  A
O1650     Mn1669   2.104       .  S
O1651     Mn1956   1.965       .  S
O1651     Mn1671   1.969       .  S
O1651      C1667   1.218       .  S
C1652      O1655   1.252       .  A
C1652      C1914   1.434       .  S
C1652      O1678   1.216       .  S
O1653     Mn1947   2.136       .  S
O1653     Mn1928   2.158       .  S
O1653     Mn1687   2.135       .  S
O1653     Mn1669   2.158       .  S
Mn1654     O1683   2.094       .  S
Mn1654     O1659   2.092       .  S
Mn1654     O1686   2.092       .  S
Mn1654     O1927   2.158   1_554  S
Mn1654     O1934   2.155   1_554  S
O1655     Mn1669   2.101       .  S
O1656      C1658   1.268       .  A
O1656     Mn1663   2.085       .  S
C1657      O1683   1.251       .  A
C1657      C1916   1.431       .  S
C1657      O1670   1.216       .  S
C1658      C1911   1.434       .  S
O1659      C1684   1.249       .  A
O1660     Mn1928   2.156       .  S
O1660     Mn1663   2.134       .  S
O1660     Mn1956   2.136       .  S
O1660     Mn1669   2.164       .  S
O1661     Mn1665   1.960   1_554  S
O1661     Mn1961   1.956   1_554  S
O1661      C1684   1.214       .  S
C1662      O1688   1.269       .  A
C1662      O1664   1.267       .  A
C1662      C1907   1.427       .  S
Mn1663     O1950   2.098       .  S
Mn1663     O1678   1.962       .  S
Mn1663     O1944   1.960       .  S
O1664     Mn1687   2.080       .  S
Mn1665     O1923   2.095       .  S
Mn1665     O1681   2.102   1_556  S
Mn1665     O1949   1.967       .  S
O1666      C1668   1.271       .  A
O1666     Mn1945   2.101   1_554  S
C1667      O1685   1.252       .  A
C1667      C1902   1.438       .  S
C1668      O1681   1.271       .  A
C1668      C1897   1.444       .  S
Mn1669     O1685   2.099       .  S
Mn1669     O1921   2.158       .  S
O1670     Mn1937   1.960   1_554  S
O1670     Mn1673   1.961   1_554  S
Mn1671     O1940   2.099       .  S
Mn1671     O1921   2.135       .  S
Mn1671     O1963   1.955       .  S
C1672      C1899   1.434       .  S
Mn1673     O1680   2.085   1_556  S
Mn1673     O1962   2.092       .  S
Mn1673     O1927   2.136       .  S
Mn1673     O1952   1.957       .  S
C1674      O1680   1.267       .  A
C1674      O1690   1.272       .  A
C1674      C1906   1.436       .  S
O1675     Mn1939   1.966       .  S
O1675     Mn1687   1.969       .  S
O1675      C1677   1.219       .  S
O1676     Mn1937   2.098   1_554  S
C1677      C1910   1.441       .  S
O1678     Mn1947   1.957       .  S
O1679     Mn1682   2.100   1_554  S
Mn1682     O1922   2.098       .  S
Mn1682     O1934   2.136       .  S
Mn1682     O1925   1.965       .  S
Mn1682     O1689   1.961   1_556  S
C1684      C1903   1.428       .  S
O1686      C1691   1.250       .  A
Mn1687     O1964   2.100       .  S
Mn1687     O1935   1.956       .  S
O1688     Mn1947   2.091       .  S
O1689     Mn1945   1.955   1_554  S
O1689      C1691   1.215       .  S
O1690     Mn1961   2.102   1_554  S
C1691      C1896   1.427       .  S
C1692      C1886   1.491       .  S
C1692      C1893   1.449       .  S
C1693      C1889   1.472       .  S
C1693      C1905   1.453       .  S
C1694      C1880   1.469       .  S
C1694      C1883   1.450       .  S
C1695      C1875   1.478       .  S
C1695      C1904   1.439       .  S
C1696      C1870   1.473       .  S
C1696      C1873   1.453       .  S
C1697      C1866   1.493       .  S
C1697      C1908   1.451       .  S
C1698      C1859   1.484       .  S
C1698      C1863   1.443       .  S
C1699      C1855   1.477       .  S
C1699      C1909   1.455       .  S
C1700      C1849   1.477       .  S
C1700      C1895   1.439       .  S
C1700      C1701   1.355       .  D
C1701      C1845   1.471       .  S
C1701      C1854   1.448       .  S
C1702      C1840   1.489       .  S
C1702      C1898   1.464       .  S
C1702      C1703   1.356       .  D
C1703      C1835   1.489       .  S
C1703      C1843   1.454       .  S
C1704      C1825   1.493       .  S
C1704      C1833   1.444       .  S
C1704      C1705   1.361       .  D
C1705      C1830   1.472       .  S
C1705      C1901   1.452       .  S
C1706      C1819   1.492       .  S
C1706      C1900   1.456       .  S
C1706      C1707   1.357       .  D
C1707      C1815   1.491       .  S
C1707      C1823   1.464       .  S
C1708      C1846   1.487       .  S
C1708      C1885   1.481       .  S
C1708      C1709   1.359       .  D
C1709      C1826   1.499       .  S
C1709      C1869   1.495       .  S
C1710      C1805   1.473       .  S
C1710      C1814   1.454       .  S
C1711      C1809   1.496       .  S
C1711      C1915   1.446       .  S
C1712      C1795   1.494       .  S
C1712      C1803   1.459       .  S
C1712      C1713   1.357       .  D
C1714      C1785   1.483       .  S
C1714      C1793   1.457       .  S
C1714      C1715   1.354       .  D
C1716      C1780   1.470       .  S
C1716      C1913   1.446       .  S
C1717      C1776   1.476       .  S
C1717      C1783   1.441       .  S
C1718      C1786   1.485       .  S
C1718      C1860   1.503       .  S
C1718      C1719   1.359       .  D
C1719      C1796   1.483       .  S
C1719      C1879   1.478       .  S
C1720      C1806   1.478       .  S
C1720      C1836   1.480       .  S
C1720      C1721   1.360       .  D
C1721      C1775   1.497       .  S
C1721      C1816   1.484       .  S
C1722      C1810   1.500       .  S
C1722      C1890   1.494       .  S
C1722      C1723   1.359       .  D
C1723      C1779   1.491       .  S
C1723      C1865   1.485       .  S
C1724      C1800   1.485       .  S
C1724      C1850   1.501       .  S
C1724      C1725   1.359       .  D
C1725      C1790   1.478       .  S
C1725      C1829   1.478       .  S
C1726      C1839   1.485       .  S
C1726      C1876   1.502       .  S
C1726      C1727   1.360       .  D
C1727      C1820   1.481       .  S
C1727      C1856   1.477       .  S
O1728      C1755   1.268       .  A
O1728     Mn1754   2.083       .  S
C1729      O1762   1.268       .  A
C1729      O1759   1.272       .  A
C1729      C1874   1.436       .  S
O1730     Mn1737   2.158       .  S
O1730     Mn1748   2.139       .  S
O1730     Mn2026   2.162       .  S
O1730     Mn2028   2.135       .  S
O1731      C1741   1.269       .  A
O1731     Mn2039   2.089       .  S
O1732      C1755   1.270       .  A
O1732     Mn2022   2.097   1_554  S
O1733      C1760   1.252       .  A
O1733     Mn1752   2.099       .  S
O1734     Mn2039   1.960       .  S
O1734     Mn1754   1.966       .  S
O1734      C1750   1.218       .  S
C1735      O1738   1.253       .  A
C1735      C1884   1.437       .  S
C1735      O1761   1.217       .  S
O1736     Mn1756   2.136       .  S
O1736     Mn1737   2.158       .  S
O1736     Mn2044   2.136       .  S
O1736     Mn2026   2.156       .  S
Mn1737     O1766   2.100       .  S
Mn1737     O1742   2.090       .  S
Mn1737     O1769   2.092       .  S
Mn1737     O1743   2.156       .  S
O1738     Mn1752   2.105       .  S
O1739      C1741   1.266       .  A
O1739     Mn1746   2.077       .  S
C1740      O1766   1.251       .  A
C1740      C1864   1.431       .  S
C1740      O1753   1.213       .  S
C1741      C1894   1.425       .  S
O1742      C1767   1.250       .  A
O1743     Mn2020   2.134       .  S
O1743     Mn1765   2.137       .  S
O1743     Mn2026   2.161       .  S
O1744     Mn1748   1.963       .  S
O1744     Mn2044   1.960       .  S
O1744      C1767   1.217       .  S
C1745      O1771   1.270       .  A
C1745      O1747   1.270       .  A
C1745      C1804   1.436       .  S
Mn1746     O2033   2.101   1_554  S
Mn1746     O2017   2.133       .  S
Mn1746     O1761   1.965       .  S
Mn1746     O2027   1.954   1_554  S
O1747     Mn1770   2.092       .  S
Mn1748     O2006   2.097       .  S
Mn1748     O1764   2.101       .  S
Mn1748     O2032   1.966       .  S
O1749      C1751   1.271       .  A
O1749     Mn2028   2.099       .  S
C1750      O1768   1.251       .  A
C1750      C1853   1.436       .  S
C1751      O1764   1.271       .  A
C1751      C1824   1.442       .  S
Mn1752     O1768   2.098       .  S
Mn1752     O2004   2.163       .  S
Mn1752     O2010   2.156       .  S
Mn1752     O2017   2.161       .  S
O1753     Mn2020   1.954       .  S
O1753     Mn1756   1.959       .  S
Mn1754     O2023   2.099   1_554  S
Mn1754     O2004   2.135       .  S
Mn1754     O2046   1.959   1_554  S
C1755      C1844   1.434       .  S
Mn1756     O1763   2.095       .  S
Mn1756     O2045   2.096       .  S
Mn1756     O2035   1.963       .  S
C1757      O1763   1.269       .  A
C1757      O1773   1.270       .  A
C1757      C1794   1.439       .  S
O1758     Mn2022   1.966   1_554  S
O1758     Mn1770   1.970       .  S
O1758      C1760   1.219       .  S
O1759     Mn2020   2.102       .  S
C1760      C1813   1.439       .  S
O1761     Mn2030   1.962       .  S
O1762     Mn1765   2.087       .  S
Mn1765     O2005   2.089       .  S
Mn1765     O2008   1.960       .  S
Mn1765     O1772   1.961       .  S
C1767      C1784   1.430       .  S
O1769      C1774   1.251       .  A
Mn1770     O2047   2.098   1_554  S
Mn1770     O2010   2.136       .  S
Mn1770     O2018   1.960   1_554  S
O1771     Mn2030   2.097       .  S
O1772     Mn2028   1.959       .  S
O1772      C1774   1.216       .  S
O1773     Mn2044   2.097       .  S
C1774      C1834   1.430       .  S
C1775      C1776   1.342       .  D
C1775      H1777   1.086       .  S
C1776      H1778   1.086       .  S
C1779      C1780   1.338       .  D
C1779      H1781   1.087       .  S
C1780      H1782   1.087       .  S
C1783      C1784   1.203       .  T
C1785      C1786   1.340       .  D
C1785      H1787   1.086       .  S
C1786      H1788   1.087       .  S
C1789      C1790   1.342       .  D
C1789      H1791   1.086       .  S
C1790      H1792   1.087       .  S
C1793      C1794   1.208       .  T
C1795      C1796   1.343       .  D
C1795      H1797   1.086       .  S
C1796      H1798   1.087       .  S
C1799      C1800   1.340       .  D
C1799      H1801   1.086       .  S
C1800      H1802   1.087       .  S
C1803      C1804   1.207       .  T
C1805      C1806   1.338       .  D
C1805      H1807   1.087       .  S
C1806      H1808   1.087       .  S
C1809      C1810   1.347       .  D
C1809      H1811   1.088       .  S
C1810      H1812   1.080       .  S
C1813      C1814   1.208       .  T
C1815      C1816   1.341       .  D
C1815      H1817   1.086       .  S
C1816      H1818   1.087       .  S
C1819      C1820   1.343       .  D
C1819      H1821   1.086       .  S
C1820      H1822   1.087       .  S
C1823      C1824   1.211       .  T
C1825      C1826   1.345       .  D
C1825      H1827   1.087       .  S
C1826      H1828   1.080       .  S
C1829      C1830   1.338       .  D
C1829      H1831   1.088       .  S
C1830      H1832   1.087       .  S
C1833      C1834   1.203       .  T
C1835      C1836   1.343       .  D
C1835      H1837   1.086       .  S
C1836      H1838   1.087       .  S
C1839      C1840   1.340       .  D
C1839      H1841   1.087       .  S
C1840      H1842   1.086       .  S
C1843      C1844   1.206       .  T
C1845      C1846   1.338       .  D
C1845      H1847   1.087       .  S
C1846      H1848   1.087       .  S
C1849      C1850   1.342       .  D
C1849      H1851   1.085       .  S
C1850      H1852   1.085       .  S
C1853      C1854   1.207       .  T
C1855      C1856   1.338       .  D
C1855      H1857   1.087       .  S
C1856      H1858   1.087       .  S
C1859      C1860   1.343       .  D
C1859      H1861   1.085       .  S
C1860      H1862   1.084       .  S
C1863      C1864   1.204       .  T
C1865      C1866   1.345       .  D
C1865      H1867   1.087       .  S
C1866      H1868   1.086       .  S
C1869      C1870   1.341       .  D
C1869      H1871   1.087       .  S
C1870      H1872   1.086       .  S
C1873      C1874   1.207       .  T
C1875      C1876   1.344       .  D
C1875      H1877   1.085       .  S
C1876      H1878   1.086       .  S
C1879      C1880   1.335       .  D
C1879      H1881   1.087       .  S
C1880      H1882   1.087       .  S
C1883      C1884   1.208       .  T
C1885      C1886   1.345       .  D
C1885      H1887   1.087       .  S
C1886      H1888   1.087       .  S
C1889      C1890   1.340       .  D
C1889      H1891   1.086       .  S
C1890      H1892   1.088       .  S
C1893      C1894   1.201       .  T
C1895      C1896   1.201       .  T
C1897      C1898   1.211       .  T
C1899      C1900   1.206       .  T
C1901      C1902   1.208       .  T
C1903      C1904   1.202       .  T
C1905      C1906   1.207       .  T
C1907      C1908   1.202       .  T
C1909      C1910   1.210       .  T
C1911      C1912   1.206       .  T
C1913      C1914   1.206       .  T
C1915      C1916   1.204       .  T
C1917      C1918   1.210       .  T
O1919      C1946   1.269       .  A
O1919     Mn1945   2.088       .  S
C1920      O1953   1.271       .  A
C1920      O1950   1.271       .  A
C1920      C2192   1.442       .  S
O1921     Mn1928   2.159       .  S
O1921     Mn1939   2.137       .  S
O1922      C1932   1.270       .  A
O1923      C1946   1.270       .  A
O1924      C1951   1.253       .  A
O1924     Mn1943   2.103       .  S
O1925     Mn1945   1.970       .  S
O1925      C1941   1.218       .  S
C1926      O1929   1.252       .  A
C1926      C2188   1.433       .  S
C1926      O1952   1.216       .  S
O1927     Mn1961   2.135       .  S
O1927     Mn1943   2.158       .  S
Mn1928     O1957   2.096       .  S
Mn1928     O1933   2.093       .  S
Mn1928     O1960   2.092       .  S
O1929     Mn1943   2.100       .  S
O1930      C1932   1.268       .  A
O1930     Mn1937   2.085       .  S
C1931      O1957   1.251       .  A
C1931      C2190   1.432       .  S
C1931      O1944   1.216       .  S
C1932      C2185   1.435       .  S
O1933      C1958   1.250       .  A
O1934     Mn1937   2.134       .  S
O1934     Mn1943   2.163       .  S
O1935     Mn1939   1.961       .  S
O1935      C1958   1.214       .  S
C1936      O1962   1.270       .  A
C1936      O1938   1.268       .  A
C1936      C2181   1.429       .  S
Mn1937     O1952   1.961       .  S
O1938     Mn1961   2.082       .  S
Mn1939     O1955   2.101       .  S
O1940      C1942   1.271       .  A
C1941      O1959   1.252       .  A
C1941      C2176   1.438       .  S
C1942      O1955   1.271       .  A
C1942      C2171   1.443       .  S
Mn1943     O1959   2.099       .  S
O1944     Mn1947   1.961       .  S
C1946      C2173   1.434       .  S
Mn1947     O1954   2.084       .  S
C1948      O1954   1.267       .  A
C1948      O1964   1.271       .  A
C1948      C2180   1.434       .  S
O1949     Mn1961   1.970       .  S
O1949      C1951   1.219       .  S
C1951      C2184   1.441       .  S
O1953     Mn1956   2.101       .  S
Mn1956     O1963   1.961       .  S
C1958      C2177   1.428       .  S
O1960      C1965   1.250       .  A
O1963      C1965   1.215       .  S
C1965      C2170   1.427       .  S
C1966      C2160   1.491       .  S
C1966      C2167   1.449       .  S
C1967      C2163   1.473       .  S
C1967      C2179   1.451       .  S
C1968      C2154   1.469       .  S
C1968      C2157   1.450       .  S
C1969      C2149   1.478       .  S
C1969      C2178   1.439       .  S
C1970      C2144   1.473       .  S
C1970      C2147   1.453       .  S
C1971      C2140   1.492       .  S
C1971      C2182   1.452       .  S
C1972      C2133   1.484       .  S
C1972      C2137   1.441       .  S
C1973      C2129   1.476       .  S
C1973      C2183   1.455       .  S
C1974      C2123   1.478       .  S
C1974      C2169   1.439       .  S
C1974      C1975   1.355       .  D
C1975      C2119   1.471       .  S
C1975      C2128   1.449       .  S
C1976      C2114   1.489       .  S
C1976      C2172   1.463       .  S
C1976      C1977   1.355       .  D
C1977      C2109   1.488       .  S
C1977      C2117   1.454       .  S
C1978      C2099   1.493       .  S
C1978      C2107   1.444       .  S
C1978      C1979   1.361       .  D
C1979      C2104   1.472       .  S
C1979      C2175   1.452       .  S
C1980      C2093   1.491       .  S
C1980      C2174   1.455       .  S
C1980      C1981   1.357       .  D
C1981      C2089   1.491       .  S
C1981      C2097   1.464       .  S
C1982      C2120   1.488       .  S
C1982      C2159   1.481       .  S
C1982      C1983   1.359       .  D
C1983      C2100   1.499       .  S
C1983      C2143   1.495       .  S
C1984      C2079   1.473       .  S
C1984      C2088   1.455       .  S
C1985      C2083   1.497       .  S
C1985      C2189   1.446       .  S
C1986      C2069   1.494       .  S
C1986      C2077   1.458       .  S
C1986      C1987   1.356       .  D
C1988      C2059   1.483       .  S
C1988      C2067   1.457       .  S
C1988      C1989   1.354       .  D
C1990      C2054   1.470       .  S
C1990      C2187   1.445       .  S
C1991      C2050   1.476       .  S
C1991      C2057   1.441       .  S
C1992      C2060   1.485       .  S
C1992      C2134   1.503       .  S
C1992      C1993   1.358       .  D
C1993      C2070   1.483       .  S
C1993      C2153   1.478       .  S
C1994      C2080   1.478       .  S
C1994      C2110   1.479       .  S
C1994      C1995   1.360       .  D
C1995      C2049   1.497       .  S
C1995      C2090   1.483       .  S
C1996      C2084   1.501       .  S
C1996      C2164   1.495       .  S
C1996      C1997   1.360       .  D
C1997      C2053   1.491       .  S
C1997      C2139   1.484       .  S
C1998      C2074   1.485       .  S
C1998      C2124   1.501       .  S
C1998      C1999   1.359       .  D
C1999      C2064   1.478       .  S
C1999      C2103   1.478       .  S
C2000      C2113   1.484       .  S
C2000      C2150   1.502       .  S
C2000      C2001   1.360       .  D
C2001      C2094   1.481       .  S
C2001      C2130   1.476       .  S
O2002      C2029   1.268       .  A
O2002     Mn2028   2.084       .  S
C2003      O2036   1.268       .  A
C2003      O2033   1.272       .  A
C2003      C2148   1.436       .  S
O2004     Mn2011   2.157   1_554  S
O2004     Mn2022   2.138   1_554  S
O2005      C2015   1.269       .  A
O2006      C2029   1.270       .  A
O2007      C2034   1.253       .  A
O2007     Mn2026   2.100       .  S
O2008     Mn2028   1.966       .  S
O2008      C2024   1.218       .  S
C2009      O2012   1.253       .  A
C2009      C2158   1.438       .  S
C2009      O2035   1.217       .  S
O2010     Mn2030   2.135       .  S
O2010     Mn2011   2.159   1_554  S
Mn2011     O2040   2.098       .  S
Mn2011     O2016   2.090       .  S
Mn2011     O2043   2.092       .  S
Mn2011     O2017   2.156   1_556  S
O2012     Mn2026   2.104       .  S
O2013      C2015   1.266       .  A
O2013     Mn2020   2.077       .  S
C2014      O2040   1.250       .  A
C2014      C2138   1.429       .  S
C2014      O2027   1.213       .  S
C2015      C2168   1.425       .  S
O2016      C2041   1.250       .  A
O2017     Mn2039   2.137       .  S
O2018     Mn2022   1.964       .  S
O2018      C2041   1.217       .  S
C2019      O2045   1.270       .  A
C2019      O2021   1.270       .  A
C2019      C2078   1.436       .  S
Mn2020     O2035   1.966       .  S
O2021     Mn2044   2.091       .  S
Mn2022     O2038   2.101       .  S
O2023      C2025   1.271       .  A
C2024      O2042   1.251       .  A
C2024      C2127   1.437       .  S
C2025      O2038   1.271       .  A
C2025      C2098   1.442       .  S
Mn2026     O2042   2.099       .  S
O2027     Mn2030   1.959   1_556  S
C2029      C2118   1.434       .  S
Mn2030     O2037   2.095   1_554  S
C2031      O2037   1.269       .  A
C2031      O2047   1.270       .  A
C2031      C2068   1.439       .  S
O2032     Mn2044   1.970       .  S
O2032      C2034   1.219       .  S
C2034      C2087   1.440       .  S
O2036     Mn2039   2.087   1_556  S
Mn2039     O2046   1.961   1_554  S
C2041      C2058   1.430       .  S
O2043      C2048   1.251       .  A
O2046      C2048   1.216       .  S
C2048      C2108   1.430       .  S
C2049      C2050   1.342       .  D
C2049      H2051   1.086       .  S
C2050      H2052   1.086       .  S
C2053      C2054   1.338       .  D
C2053      H2055   1.087       .  S
C2054      H2056   1.086       .  S
C2057      C2058   1.203       .  T
C2059      C2060   1.340       .  D
C2059      H2061   1.086       .  S
C2060      H2062   1.087       .  S
C2063      C2064   1.342       .  D
C2063      H2065   1.086       .  S
C2064      H2066   1.087       .  S
C2067      C2068   1.209       .  T
C2069      C2070   1.343       .  D
C2069      H2071   1.086       .  S
C2070      H2072   1.087       .  S
C2073      C2074   1.340       .  D
C2073      H2075   1.086       .  S
C2074      H2076   1.087       .  S
C2077      C2078   1.207       .  T
C2079      C2080   1.338       .  D
C2079      H2081   1.087       .  S
C2080      H2082   1.087       .  S
C2083      C2084   1.347       .  D
C2083      H2085   1.088       .  S
C2084      H2086   1.080       .  S
C2087      C2088   1.209       .  T
C2089      C2090   1.341       .  D
C2089      H2091   1.086       .  S
C2090      H2092   1.087       .  S
C2093      C2094   1.343       .  D
C2093      H2095   1.086       .  S
C2094      H2096   1.087       .  S
C2097      C2098   1.211       .  T
C2099      C2100   1.345       .  D
C2099      H2101   1.087       .  S
C2100      H2102   1.080       .  S
C2103      C2104   1.338       .  D
C2103      H2105   1.088       .  S
C2104      H2106   1.087       .  S
C2107      C2108   1.203       .  T
C2109      C2110   1.342       .  D
C2109      H2111   1.086       .  S
C2110      H2112   1.087       .  S
C2113      C2114   1.340       .  D
C2113      H2115   1.087       .  S
C2114      H2116   1.086       .  S
C2117      C2118   1.206       .  T
C2119      C2120   1.338       .  D
C2119      H2121   1.087       .  S
C2120      H2122   1.087       .  S
C2123      C2124   1.342       .  D
C2123      H2125   1.085       .  S
C2124      H2126   1.085       .  S
C2127      C2128   1.207       .  T
C2129      C2130   1.337       .  D
C2129      H2131   1.087       .  S
C2130      H2132   1.088       .  S
C2133      C2134   1.343       .  D
C2133      H2135   1.085       .  S
C2134      H2136   1.084       .  S
C2137      C2138   1.203       .  T
C2139      C2140   1.344       .  D
C2139      H2141   1.087       .  S
C2140      H2142   1.086       .  S
C2143      C2144   1.341       .  D
C2143      H2145   1.087       .  S
C2144      H2146   1.086       .  S
C2147      C2148   1.207       .  T
C2149      C2150   1.344       .  D
C2149      H2151   1.085       .  S
C2150      H2152   1.086       .  S
C2153      C2154   1.335       .  D
C2153      H2155   1.087       .  S
C2154      H2156   1.087       .  S
C2157      C2158   1.208       .  T
C2159      C2160   1.345       .  D
C2159      H2161   1.087       .  S
C2160      H2162   1.087       .  S
C2163      C2164   1.340       .  D
C2163      H2165   1.086       .  S
C2164      H2166   1.088       .  S
C2167      C2168   1.201       .  T
C2169      C2170   1.201       .  T
C2171      C2172   1.211       .  T
C2173      C2174   1.206       .  T
C2175      C2176   1.208       .  T
C2177      C2178   1.202       .  T
C2179      C2180   1.206       .  T
C2181      C2182   1.203       .  T
C2183      C2184   1.209       .  T
C2185      C2186   1.206       .  T
C2187      C2188   1.205       .  T
C2189      C2190   1.204       .  T
C2191      C2192   1.210       .  T
