geometry optimzed in LAMMPS
_audit_creation_date              2020-11-30 
_audit_creation_method            'lammps2cif' 
_symmetry_space_group_name_H-M    'P1' 
_symmetry_Int_Tables_number       1 
_symmetry_cell_setting            triclinic 
loop_ 
_symmetry_equiv_pos_as_xyz 
  x,y,z 
_cell_length_a                    45.80202297 
_cell_length_b                    45.79891792232219 
_cell_length_c                    27.818008757123067 
_cell_angle_alpha                 90.00243749003265 
_cell_angle_beta                  90.0002264807654 
_cell_angle_gamma                 120.17844665814248 
loop_ 
_atom_site_label 
_atom_site_type_symbol 
_atom_site_fract_x 
_atom_site_fract_y 
_atom_site_fract_z 
_atom_site_charge 
C1          C  0.33309460  0.16646604  0.54689397     0.49100
H2          H  0.33310204  0.16645687  0.58686110     0.00100
C3          C  0.33306279  0.16648148  0.45310762     0.49200
H4          H  0.33304199  0.16648562  0.41314054     0.00100
C5          C  0.30643455  0.13279323  0.52458758    -0.13600
C6          C  0.32607886  0.19303561  0.52462123    -0.13300
C7          C  0.36672905  0.17356552  0.52455423    -0.13700
C8          C  0.30641891  0.13280035  0.47541331    -0.13700
C9          C  0.32606593  0.19304573  0.47545132    -0.13300
C10         C  0.36671307  0.17357533  0.47537727    -0.13600
O11         O  0.14901473  0.11541168  0.04841793    -0.68100
O12         O  0.11524071  0.14912566  0.95156024    -0.68300
O13         O  0.11524468  0.14918081  0.04834892    -0.68200
O14         O  0.14901075  0.11535957  0.95163076    -0.68200
O15         O  0.10138302  0.06773619  0.95168394    -0.68200
O16         O  0.06762622  0.10154822  0.04836492    -0.68200
O17         O  0.06762281  0.10149240  0.95161517    -0.68100
O18         O  0.10138627  0.06778897  0.04843138    -0.68300
V19         V  0.13120000  0.13134190  0.99999097     1.35200
V20         V  0.08542893  0.08556604  0.00002406     1.35200
C21         C  0.13080553  0.08599967  0.06502895     0.81100
C22         C  0.08582380  0.13090125  0.93497594     0.81200
C23         C  0.08582756  0.13097777  0.06494132     0.81100
C24         C  0.13079911  0.08593190  0.93506964     0.81000
O25         O  0.34932365  0.46532886  0.95169466    -0.68100
O26         O  0.38320348  0.03315512  0.04830505    -0.68300
O27         O  0.38314795  0.03304471  0.95153903    -0.68200
O28         O  0.34938289  0.46543945  0.04845842    -0.68200
O29         O  0.39698600  0.46565114  0.04843197    -0.68200
O30         O  0.43074038  0.03323501  0.95156063    -0.68200
O31         O  0.43079609  0.03334598  0.04828662    -0.68100
O32         O  0.39692639  0.46554000  0.95170766    -0.68300
V33         V  0.36719154  0.49924608  0.99999911     1.35200
V34         V  0.41293886  0.49943950  0.99999670     1.35200
C35         C  0.36750017  0.45417099  0.93514285     0.81100
C36         C  0.41262667  0.04451184  0.06485724     0.81200
C37         C  0.41255373  0.04436436  0.93494068     0.81100
C38         C  0.36758084  0.45431929  0.06505204     0.81000
O39         O  0.46542954  0.39694529  0.95165748    -0.68100
O40         O  0.03317950  0.43081238  0.04830243    -0.68300
O41         O  0.03312039  0.43075748  0.95157848    -0.68200
O42         O  0.46549146  0.39700399  0.04838221    -0.68200
O43         O  0.46527546  0.34939562  0.04843795    -0.68200
O44         O  0.03292803  0.38316092  0.95158523    -0.68200
O45         O  0.03298684  0.38321569  0.04835405    -0.68100
O46         O  0.46521365  0.34933707  0.95166969    -0.68300
V47         V  0.49930144  0.41295577  0.99997994     1.35200
V48         V  0.49910491  0.36720392  0.00001043     1.35200
C49         C  0.45406637  0.36751713  0.93509484     0.81100
C50         C  0.04433405  0.41264136  0.06490241     0.81200
C51         C  0.04425862  0.41257032  0.93498645     0.81100
C52         C  0.45415233  0.36759799  0.06501011     0.81000
C53         C  0.01735748  0.19914719  0.32084410     0.06000
C54         C  0.48171926  0.18139478  0.32080232     0.05900
C55         C  0.46416436  0.15955994  0.28258597    -0.14600
C56         C  0.48165948  0.15510645  0.24468367     0.06000
C57         C  0.01720073  0.17279679  0.24473259     0.05900
C58         C  0.03480533  0.19473735  0.28268283    -0.14600
H59         H  0.06220792  0.20823489  0.28270650     0.08000
H60         H  0.43676140  0.14575898  0.28253131     0.08000
C61         C  0.29991448  0.31780479  0.32131336     0.06000
C62         C  0.31767610  0.30002523  0.32130991     0.05900
C63         C  0.33945796  0.30435008  0.28305936    -0.14600
C64         C  0.34384113  0.32623445  0.24507351     0.06000
C65         C  0.32613036  0.34396736  0.24507946     0.05900
C66         C  0.30425250  0.33959505  0.28306809    -0.14600
H67         H  0.29074717  0.35342010  0.28305339     0.08000
H68         H  0.35326504  0.29083140  0.28303794     0.08000
C69         C  0.01736255  0.19889695  0.67887502     0.06000
C70         C  0.48172703  0.18113573  0.67888832     0.05900
C71         C  0.46416121  0.15926388  0.71705986    -0.14600
C72         C  0.48164687  0.15479408  0.75495780     0.06000
C73         C  0.01718721  0.17249666  0.75494252     0.05900
C74         C  0.03480308  0.19446409  0.71702464    -0.14600
H75         H  0.06219942  0.20797339  0.71702902     0.08000
H76         H  0.43675843  0.14546089  0.71709511     0.08000
C77         C  0.31739375  0.29974547  0.67900106     0.06000
C78         C  0.29962227  0.31751809  0.67902119     0.05900
C79         C  0.30393374  0.33927211  0.71730948    -0.14600
C80         C  0.32580323  0.34362820  0.75530429     0.06000
C81         C  0.34352517  0.32590542  0.75528255     0.05900
C82         C  0.33915739  0.30404584  0.71726685    -0.14600
H83         H  0.35298157  0.29053874  0.71726312     0.08000
H84         H  0.29042831  0.35309761  0.71733982     0.08000
C85         C  0.18108179  0.48184848  0.67900788     0.06000
C86         C  0.19884456  0.01748808  0.67901389     0.05900
C87         C  0.19442508  0.03491983  0.71719229    -0.14600
C88         C  0.17246809  0.01729238  0.75511597     0.06000
C89         C  0.15476419  0.48174843  0.75511046     0.05900
C90         C  0.15922404  0.46427380  0.71718674    -0.14600
H91         H  0.14541688  0.43686403  0.71720457     0.08000
H92         H  0.20793323  0.06231863  0.71721172     0.08000
C93         C  0.18111022  0.48183888  0.32094233     0.06000
C94         C  0.19885397  0.01747753  0.32098870     0.05900
C95         C  0.19443331  0.03492562  0.28283932    -0.14600
C96         C  0.17249573  0.01731838  0.24488846     0.06000
C97         C  0.15481535  0.48177521  0.24483240     0.05900
C98         C  0.15927289  0.46427960  0.28273123    -0.14600
H99         H  0.14548350  0.43687580  0.28267056     0.08000
H100        H  0.20792753  0.06232867  0.28286495     0.08000
C101        C  0.16634114  0.33320815  0.54689408     0.49100
H102        H  0.16631732  0.33319770  0.58686098     0.00100
C103        C  0.16638831  0.33321813  0.45310765     0.49200
H104        H  0.16640603  0.33321634  0.41314052     0.00100
C105        C  0.13267783  0.30655787  0.52455417    -0.13600
C106        C  0.17344883  0.36685514  0.52458414    -0.13300
C107        C  0.19291668  0.32620178  0.52462461    -0.13700
C108        C  0.13270075  0.30656490  0.47538020    -0.13700
C109        C  0.17347209  0.36685955  0.47540761    -0.13300
C110        C  0.19294271  0.32620930  0.47545407    -0.13600
C111        C  0.18425930  0.46238793  0.35939510    -0.14800
C112        C  0.18435050  0.44317013  0.38898503     0.09200
C113        C  0.18210065  0.41812120  0.42092415     0.11100
C114        C  0.17874224  0.39532080  0.44641282    -0.15700
C115        C  0.18423772  0.46241370  0.64053915    -0.14800
C116        C  0.18432578  0.44319158  0.61095303     0.09200
C117        C  0.18206810  0.41812875  0.57903419     0.11100
C118        C  0.17870726  0.39531803  0.55356570    -0.15700
C119        C  0.21597468  0.32077901  0.55362061    -0.14800
C120        C  0.23528923  0.31719754  0.57903404     0.09200
C121        C  0.25794469  0.31465059  0.61088187     0.11100
C122        C  0.27714639  0.31452454  0.64046261    -0.15700
C123        C  0.03692182  0.22153826  0.64043933    -0.14800
C124        C  0.05620544  0.24089601  0.61086807     0.09200
C125        C  0.08131836  0.26376656  0.57896273     0.11100
C126        C  0.10416805  0.28327861  0.55350899    -0.15700
C127        C  0.27739438  0.31475600  0.35983367    -0.14800
C128        C  0.25814150  0.31481996  0.38937575     0.09200
C129        C  0.23541826  0.31729227  0.42116660     0.11100
C130        C  0.21604870  0.32082200  0.44652530    -0.15700
C131        C  0.03691327  0.22173563  0.35933388    -0.14800
C132        C  0.05621260  0.24104412  0.38894044     0.09200
C133        C  0.08134577  0.26385364  0.42088208     0.11100
C134        C  0.10420249  0.28331975  0.44637081    -0.15700
C135        C  0.42931050  0.35519887  0.89745356    -0.14800
C136        C  0.40922835  0.34594522  0.86492768     0.09200
C137        C  0.38625157  0.33670128  0.82634156     0.11100
C138        C  0.36679994  0.33060428  0.79356986    -0.15700
C139        C  0.06897065  0.42496986  0.89729020    -0.14800
C140        C  0.08902714  0.43581286  0.86472999     0.09200
C141        C  0.11199075  0.44960974  0.82612294     0.11100
C142        C  0.13145069  0.46304960  0.79335668    -0.15700
C143        C  0.06907251  0.42506899  0.10256597    -0.14800
C144        C  0.08913202  0.43590840  0.13512515     0.09200
C145        C  0.11208261  0.44968103  0.17375330     0.11100
C146        C  0.13152433  0.46309571  0.20654908    -0.15700
C147        C  0.42945434  0.35533366  0.10272382    -0.14800
C148        C  0.40942441  0.34613954  0.13530989     0.09200
C149        C  0.38650509  0.33696635  0.17395487     0.11100
C150        C  0.36709149  0.33091418  0.20676186    -0.15700
C151        C  0.42504978  0.06927422  0.10249135    -0.14800
C152        C  0.43586426  0.08935548  0.13502805     0.09200
C153        C  0.44959778  0.11233185  0.17363472     0.10100
C154        C  0.46298763  0.13179512  0.20641675    -0.15700
C155        C  0.42494701  0.06905156  0.89721269    -0.14800
C156        C  0.43577201  0.08908646  0.86462466     0.09200
C157        C  0.44954069  0.11202847  0.82599042     0.11100
C158        C  0.46296007  0.13147897  0.79320811    -0.15700
C159        C  0.33051661  0.36689422  0.79361361    -0.14800
C160        C  0.33663446  0.38634015  0.82640122     0.09200
C161        C  0.34590631  0.40931418  0.86499661     0.11100
C162        C  0.35517809  0.42940075  0.89751979    -0.15700
C163        C  0.33082937  0.36723205  0.20677998    -0.14800
C164        C  0.33690129  0.38665909  0.17398479     0.09200
C165        C  0.34609839  0.40959160  0.13535320     0.11100
C166        C  0.35530868  0.42962690  0.10277299    -0.15700
C167        C  0.07344638  0.14327466  0.10262021    -0.14800
C168        C  0.06268552  0.15253969  0.13516850     0.09200
C169        C  0.04904014  0.16183678  0.17376305     0.11100
C170        C  0.03574837  0.16800463  0.20651318    -0.15700
C171        C  0.07344228  0.14314633  0.89723145    -0.14800
C172        C  0.06267536  0.15235684  0.86462664     0.09200
C173        C  0.04902151  0.16159137  0.82597420     0.11100
C174        C  0.03572743  0.16772051  0.79318817    -0.15700
C175        C  0.14306689  0.07353455  0.89737429    -0.14800
C176        C  0.15229873  0.06276355  0.86479923     0.09200
C177        C  0.16155388  0.04911212  0.82616470     0.11100
C178        C  0.16769260  0.03582396  0.79337852    -0.15700
C179        C  0.16771322  0.03586975  0.20666625    -0.14800
C180        C  0.16157303  0.04918128  0.17391480     0.09200
C181        C  0.15231720  0.06285476  0.13531175     0.11100
C182        C  0.14308245  0.07362877  0.10274535    -0.15700
C183        C  0.31461800  0.27750047  0.35982959    -0.14800
C184        C  0.31467546  0.25824430  0.38937192     0.09200
C185        C  0.31714301  0.23551774  0.42116253     0.11100
C186        C  0.32067239  0.21614747  0.44652105    -0.15700
C187        C  0.31438944  0.27727642  0.64042572    -0.14800
C188        C  0.31451632  0.25807460  0.61084419     0.09200
C189        C  0.31707078  0.23541636  0.57901000     0.11100
C190        C  0.32065781  0.21609821  0.55361035    -0.15700
C191        C  0.39519971  0.17882791  0.55351308    -0.14800
C192        C  0.41800971  0.18217964  0.57897004     0.09200
C193        C  0.44306693  0.18441694  0.61087667     0.11100
C194        C  0.46228541  0.18430922  0.64044746    -0.15700
C195        C  0.39517203  0.17887045  0.44635601    -0.14800
C196        C  0.41797735  0.18226737  0.42084619     0.09200
C197        C  0.44303821  0.18456956  0.38888408     0.11100
C198        C  0.46226571  0.18451700  0.35927675    -0.15700
C199        C  0.28316406  0.10429427  0.55357213    -0.14800
C200        C  0.26366380  0.08145275  0.57905097     0.09200
C201        C  0.24081073  0.05634466  0.61098083     0.11100
C202        C  0.22146887  0.03705866  0.64056665    -0.15700
C203        C  0.22146158  0.03703328  0.35945924    -0.14800
C204        C  0.24079572  0.05632532  0.38904786     0.09200
C205        C  0.26364333  0.08144911  0.42096599     0.11100
C206        C  0.28314248  0.10430118  0.44643248    -0.15700
C207        C  0.33309461  0.66646598  0.54689393     0.49100
H208        H  0.33310206  0.66645680  0.58686116     0.00100
C209        C  0.33306269  0.66648124  0.45310762     0.49200
H210        H  0.33304157  0.66648476  0.41314043     0.00100
C211        C  0.30643455  0.63279322  0.52458763    -0.13600
C212        C  0.32607890  0.69303558  0.52462120    -0.13300
C213        C  0.36672904  0.67356546  0.52455422    -0.13700
C214        C  0.30641884  0.63280023  0.47541340    -0.13700
C215        C  0.32606597  0.69304568  0.47545121    -0.13300
C216        C  0.36671302  0.67357521  0.47537719    -0.13600
O217        O  0.14901459  0.61541148  0.04841789    -0.68100
O218        O  0.11524083  0.64912582  0.95156023    -0.68300
O219        O  0.11524472  0.64918089  0.04834901    -0.68200
O220        O  0.14901087  0.61535972  0.95163073    -0.68200
O221        O  0.10138313  0.56773629  0.95168401    -0.68200
O222        O  0.06762625  0.60154830  0.04836503    -0.68200
O223        O  0.06762293  0.60149252  0.95161516    -0.68100
O224        O  0.10138610  0.56778879  0.04843145    -0.68300
V225        V  0.13120005  0.63134194  0.99999101     1.35200
V226        V  0.08542894  0.58556609  0.00002405     1.35200
C227        C  0.13080521  0.58599938  0.06502890     0.81100
C228        C  0.08582396  0.63090150  0.93497586     0.81200
C229        C  0.08582763  0.63097789  0.06494139     0.81100
C230        C  0.13079930  0.58593205  0.93506956     0.81000
O231        O  0.34932363  0.96532886  0.95169473    -0.68100
O232        O  0.38320347  0.53315505  0.04830498    -0.68300
O233        O  0.38314805  0.53304466  0.95153903    -0.68200
O234        O  0.34938293  0.96543951  0.04845840    -0.68200
O235        O  0.39698603  0.96565119  0.04843188    -0.68200
O236        O  0.43074049  0.53323493  0.95156073    -0.68200
O237        O  0.43079607  0.53334592  0.04828660    -0.68100
O238        O  0.39692639  0.96554007  0.95170754    -0.68300
V239        V  0.36719153  0.99924613  0.99999917     1.35200
V240        V  0.41293886  0.99943958  0.99999665     1.35200
C241        C  0.36750012  0.95417103  0.93514277     0.81100
C242        C  0.41262658  0.54451163  0.06485706     0.81200
C243        C  0.41255392  0.54436430  0.93494070     0.81100
C244        C  0.36758080  0.95431927  0.06505202     0.81000
O245        O  0.46542953  0.89694553  0.95165753    -0.68100
O246        O  0.03317947  0.93081240  0.04830244    -0.68300
O247        O  0.03312032  0.93075751  0.95157852    -0.68200
O248        O  0.46549140  0.89700385  0.04838229    -0.68200
O249        O  0.46527546  0.84939551  0.04843800    -0.68200
O250        O  0.03292803  0.88316097  0.95158530    -0.68200
O251        O  0.03298687  0.88321575  0.04835406    -0.68100
O252        O  0.46521370  0.84933735  0.95166976    -0.68300
V253        V  0.49930143  0.91295580  0.99998009     1.35200
V254        V  0.49910493  0.86720396  0.00001044     1.35200
C255        C  0.45406645  0.86751756  0.93509496     0.81100
C256        C  0.04433403  0.91264142  0.06490238     0.81200
C257        C  0.04425863  0.91257038  0.93498646     0.81100
C258        C  0.45415226  0.86759776  0.06501020     0.81000
C259        C  0.01735740  0.69914715  0.32084406     0.06000
C260        C  0.48171925  0.68139475  0.32080240     0.05900
C261        C  0.46416434  0.65955984  0.28258604    -0.14600
C262        C  0.48165948  0.65510641  0.24468379     0.06000
C263        C  0.01720059  0.67279671  0.24473257     0.05900
C264        C  0.03480526  0.69473735  0.28268271    -0.14600
H265        H  0.06220791  0.70823503  0.28270623     0.08000
H266        H  0.43676149  0.64575913  0.28253127     0.08000
C267        C  0.29991428  0.81780497  0.32131340     0.06000
C268        C  0.31767622  0.80002503  0.32131013     0.05900
C269        C  0.33945775  0.80435002  0.28305963    -0.14600
C270        C  0.34384132  0.82623413  0.24507365     0.06000
C271        C  0.32613026  0.84396755  0.24507949     0.05900
C272        C  0.30425260  0.83959501  0.28306815    -0.14600
H273        H  0.29074711  0.85342030  0.28305344     0.08000
H274        H  0.35326610  0.79082930  0.28303838     0.08000
C275        C  0.01736263  0.69889699  0.67887506     0.06000
C276        C  0.48172712  0.68113580  0.67888835     0.05900
C277        C  0.46416120  0.65926387  0.71705986    -0.14600
C278        C  0.48164693  0.65479410  0.75495785     0.06000
C279        C  0.01718722  0.67249663  0.75494263     0.05900
C280        C  0.03480288  0.69446392  0.71702470    -0.14600
H281        H  0.06220019  0.70797333  0.71702893     0.08000
H282        H  0.43675852  0.64546099  0.71709507     0.08000
C283        C  0.31739328  0.79974590  0.67900098     0.06000
C284        C  0.29962240  0.81751792  0.67902135     0.05900
C285        C  0.30393348  0.83927224  0.71730977    -0.14600
C286        C  0.32580348  0.84362794  0.75530448     0.06000
C287        C  0.34352473  0.82590572  0.75528250     0.05900
C288        C  0.33915735  0.80404578  0.71726675    -0.14600
H289        H  0.35297866  0.79054079  0.71726306     0.08000
H290        H  0.29042873  0.85309729  0.71734039     0.08000
C291        C  0.18108271  0.98185030  0.67900780     0.06000
C292        C  0.19884539  0.51748972  0.67901406     0.05900
C293        C  0.19442468  0.53491900  0.71719257    -0.14600
C294        C  0.17246886  0.51729401  0.75511630     0.06000
C295        C  0.15476507  0.98175018  0.75511023     0.05900
C296        C  0.15922378  0.96427316  0.71718643    -0.14600
H297        H  0.14542112  0.93687190  0.71720410     0.08000
H298        H  0.20793693  0.56232658  0.71721216     0.08000
C299        C  0.18110992  0.98183822  0.32094238     0.06000
C300        C  0.19885345  0.51747658  0.32098855     0.05900
C301        C  0.19443334  0.53492587  0.28283911    -0.14600
C302        C  0.17249519  0.51731733  0.24488845     0.06000
C303        C  0.15481512  0.98177463  0.24483240     0.05900
C304        C  0.15927318  0.96428007  0.28273109    -0.14600
H305        H  0.14548313  0.93687479  0.28267016     0.08000
H306        H  0.20792416  0.56232214  0.28286462     0.08000
C307        C  0.16634116  0.83320817  0.54689406     0.49100
H308        H  0.16631738  0.83319785  0.58686107     0.00100
C309        C  0.16638802  0.83321803  0.45310768     0.49200
H310        H  0.16640508  0.83321616  0.41314047     0.00100
C311        C  0.13267781  0.80655786  0.52455428    -0.13600
C312        C  0.17344887  0.86685517  0.52458415    -0.13300
C313        C  0.19291671  0.82620181  0.52462457    -0.13700
C314        C  0.13270060  0.80656481  0.47538030    -0.13700
C315        C  0.17347190  0.86685945  0.47540762    -0.13300
C316        C  0.19294257  0.82620922  0.47545391    -0.13600
C317        C  0.18425936  0.96238808  0.35939518    -0.14800
C318        C  0.18435055  0.94317025  0.38898494     0.09200
C319        C  0.18210068  0.91812120  0.42092423     0.11100
C320        C  0.17874214  0.89532080  0.44641284    -0.15700
C321        C  0.18423770  0.96241350  0.64053897    -0.14800
C322        C  0.18432579  0.94319159  0.61095300     0.09200
C323        C  0.18206803  0.91812873  0.57903428     0.11100
C324        C  0.17870723  0.89531800  0.55356566    -0.15700
C325        C  0.21597470  0.82077908  0.55362058    -0.14800
C326        C  0.23528920  0.81719749  0.57903407     0.09200
C327        C  0.25794459  0.81465048  0.61088172     0.11100
C328        C  0.27714629  0.81452467  0.64046270    -0.15700
C329        C  0.03692185  0.72153830  0.64043942    -0.14800
C330        C  0.05620543  0.74089601  0.61086811     0.09200
C331        C  0.08131833  0.76376653  0.57896267     0.11100
C332        C  0.10416800  0.78327858  0.55350907    -0.15700
C333        C  0.27739438  0.81475597  0.35983370    -0.14800
C334        C  0.25814156  0.81482001  0.38937571     0.09200
C335        C  0.23541832  0.81729236  0.42116660     0.11100
C336        C  0.21604866  0.82082202  0.44652518    -0.15700
C337        C  0.03691321  0.72173558  0.35933378    -0.14800
C338        C  0.05621256  0.74104410  0.38894045     0.09200
C339        C  0.08134575  0.76385358  0.42088192     0.11100
C340        C  0.10420249  0.78331965  0.44637084    -0.15700
C341        C  0.42931045  0.85519895  0.89745364    -0.14800
C342        C  0.40922837  0.84594515  0.86492780     0.09200
C343        C  0.38625153  0.83670122  0.82634148     0.11100
C344        C  0.36680004  0.83060422  0.79356994    -0.15700
C345        C  0.06897063  0.92496993  0.89729032    -0.14800
C346        C  0.08902719  0.93581295  0.86472999     0.09200
C347        C  0.11199075  0.94960976  0.82612305     0.11100
C348        C  0.13145057  0.96304930  0.79335661    -0.15700
C349        C  0.06907257  0.92506913  0.10256599    -0.14800
C350        C  0.08913207  0.93590841  0.13512510     0.09200
C351        C  0.11208280  0.94968110  0.17375339     0.11100
C352        C  0.13152450  0.96309598  0.20654893    -0.15700
C353        C  0.42945432  0.85533355  0.10272385    -0.14800
C354        C  0.40942433  0.84613946  0.13530988     0.09200
C355        C  0.38650505  0.83696628  0.17395484     0.11100
C356        C  0.36709142  0.83091406  0.20676198    -0.15700
C357        C  0.42504981  0.56927424  0.10249136    -0.14800
C358        C  0.43586420  0.58935531  0.13502786     0.09200
C359        C  0.44959777  0.61233180  0.17363490     0.10100
C360        C  0.46298755  0.63179499  0.20641671    -0.15700
C361        C  0.42494710  0.56905146  0.89721273    -0.14800
C362        C  0.43577209  0.58908641  0.86462466     0.09200
C363        C  0.44954071  0.61202842  0.82599053     0.11100
C364        C  0.46296011  0.63147895  0.79320814    -0.15700
C365        C  0.33051657  0.86689421  0.79361371    -0.14800
C366        C  0.33663452  0.88634018  0.82640143     0.09200
C367        C  0.34590632  0.90931419  0.86499657     0.11100
C368        C  0.35517809  0.92940084  0.89751972    -0.15700
C369        C  0.33082944  0.86723198  0.20678000    -0.14800
C370        C  0.33690134  0.88665911  0.17398478     0.09200
C371        C  0.34609839  0.90959160  0.13535330     0.11100
C372        C  0.35530869  0.92962694  0.10277290    -0.15700
C373        C  0.07344641  0.64327475  0.10262037    -0.14800
C374        C  0.06268550  0.65253969  0.13516856     0.09200
C375        C  0.04904012  0.66183682  0.17376315     0.11100
C376        C  0.03574835  0.66800462  0.20651317    -0.15700
C377        C  0.07344236  0.64314638  0.89723142    -0.14800
C378        C  0.06267534  0.65235683  0.86462644     0.09200
C379        C  0.04902149  0.66159122  0.82597414     0.11100
C380        C  0.03572730  0.66772038  0.79318805    -0.15700
C381        C  0.14306691  0.57353465  0.89737436    -0.14800
C382        C  0.15229875  0.56276351  0.86479916     0.09200
C383        C  0.16155401  0.54911222  0.82616485     0.11100
C384        C  0.16769253  0.53582355  0.79337855    -0.15700
C385        C  0.16771317  0.53586987  0.20666604    -0.14800
C386        C  0.16157313  0.54918131  0.17391489     0.09200
C387        C  0.15231723  0.56285475  0.13531163     0.11100
C388        C  0.14308238  0.57362863  0.10274539    -0.15700
C389        C  0.31461789  0.77750056  0.35982966    -0.14800
C390        C  0.31467537  0.75824419  0.38937190     0.09200
C391        C  0.31714293  0.73551768  0.42116252     0.11100
C392        C  0.32067242  0.71614748  0.44652107    -0.15700
C393        C  0.31438943  0.77727642  0.64042559    -0.14800
C394        C  0.31451641  0.75807465  0.61084423     0.09200
C395        C  0.31707081  0.73541640  0.57900998     0.11100
C396        C  0.32065782  0.71609813  0.55361029    -0.15700
C397        C  0.39519967  0.67882789  0.55351305    -0.14800
C398        C  0.41800966  0.68217952  0.57897004     0.09200
C399        C  0.44306692  0.68441687  0.61087655     0.11100
C400        C  0.46228544  0.68430924  0.64044747    -0.15700
C401        C  0.39517197  0.67887049  0.44635601    -0.14800
C402        C  0.41797736  0.68226732  0.42084618     0.09200
C403        C  0.44303812  0.68456947  0.38888414     0.11100
C404        C  0.46226573  0.68451702  0.35927668    -0.15700
C405        C  0.28316403  0.60429422  0.55357217    -0.14800
C406        C  0.26366381  0.58145275  0.57905083     0.09200
C407        C  0.24081065  0.55634461  0.61098090     0.11100
C408        C  0.22146869  0.53705838  0.64056686    -0.15700
C409        C  0.22146163  0.53703339  0.35945923    -0.14800
C410        C  0.24079563  0.55632522  0.38904779     0.09200
C411        C  0.26364324  0.58144905  0.42096593     0.11100
C412        C  0.28314242  0.60430113  0.44643260    -0.15700
C413        C  0.83309460  0.16646605  0.54689394     0.49100
H414        H  0.83310202  0.16645691  0.58686111     0.00100
C415        C  0.83306278  0.16648148  0.45310759     0.49200
H416        H  0.83304197  0.16648562  0.41314048     0.00100
C417        C  0.80643456  0.13279325  0.52458758    -0.13600
C418        C  0.82607888  0.19303563  0.52462122    -0.13300
C419        C  0.86672903  0.17356550  0.52455419    -0.13700
C420        C  0.80641892  0.13280037  0.47541330    -0.13700
C421        C  0.82606597  0.19304575  0.47545131    -0.13300
C422        C  0.86671306  0.17357531  0.47537720    -0.13600
O423        O  0.64901473  0.11541162  0.04841786    -0.68100
O424        O  0.61524071  0.14912566  0.95156029    -0.68300
O425        O  0.61524461  0.14918076  0.04834896    -0.68200
O426        O  0.64901076  0.11535959  0.95163074    -0.68200
O427        O  0.60138302  0.06773620  0.95168399    -0.68200
O428        O  0.56762615  0.10154817  0.04836503    -0.68200
O429        O  0.56762281  0.10149239  0.95161518    -0.68100
O430        O  0.60138625  0.06778895  0.04843139    -0.68300
V431        V  0.63119998  0.13134187  0.99999097     1.35200
V432        V  0.58542890  0.08556602  0.00002407     1.35200
C433        C  0.63080547  0.08599966  0.06502887     0.81100
C434        C  0.58582378  0.13090127  0.93497595     0.81200
C435        C  0.58582746  0.13097767  0.06494138     0.81100
C436        C  0.63079913  0.08593187  0.93506959     0.81000
O437        O  0.84932364  0.46532887  0.95169469    -0.68100
O438        O  0.88320347  0.03315514  0.04830501    -0.68300
O439        O  0.88314806  0.03304473  0.95153900    -0.68200
O440        O  0.84938288  0.46543947  0.04845841    -0.68200
O441        O  0.89698597  0.46565113  0.04843198    -0.68200
O442        O  0.93074049  0.03323498  0.95156067    -0.68200
O443        O  0.93079606  0.03334596  0.04828666    -0.68100
O444        O  0.89692637  0.46553999  0.95170762    -0.68300
V445        V  0.86719150  0.49924608  0.99999910     1.35200
V446        V  0.91293881  0.49943948  0.99999669     1.35200
C447        C  0.86750011  0.45417099  0.93514284     0.81100
C448        C  0.91262665  0.04451184  0.06485724     0.81200
C449        C  0.91255396  0.04436438  0.93494067     0.81100
C450        C  0.86758078  0.45431929  0.06505205     0.81000
O451        O  0.96542955  0.39694530  0.95165750    -0.68100
O452        O  0.53317954  0.43081240  0.04830241    -0.68300
O453        O  0.53312039  0.43075747  0.95157851    -0.68200
O454        O  0.96549144  0.39700405  0.04838227    -0.68200
O455        O  0.96527543  0.34939567  0.04843794    -0.68200
O456        O  0.53292805  0.38316091  0.95158533    -0.68200
O457        O  0.53298683  0.38321569  0.04835411    -0.68100
O458        O  0.96521364  0.34933706  0.95166973    -0.68300
V459        V  0.99930143  0.41295579  0.99997996     1.35200
V460        V  0.99910489  0.36720394  0.00001042     1.35200
C461        C  0.95406636  0.36751713  0.93509487     0.81100
C462        C  0.54433404  0.41264135  0.06490242     0.81200
C463        C  0.54425869  0.41257033  0.93498648     0.81100
C464        C  0.95415227  0.36759808  0.06501017     0.81000
C465        C  0.51735741  0.19914715  0.32084408     0.06000
C466        C  0.98171925  0.18139478  0.32080239     0.05900
C467        C  0.96416447  0.15955997  0.28258599    -0.14600
C468        C  0.98165950  0.15510645  0.24468372     0.06000
C469        C  0.51720061  0.17279676  0.24473258     0.05900
C470        C  0.53480530  0.19473732  0.28268273    -0.14600
H471        H  0.56220778  0.20823475  0.28270640     0.08000
H472        H  0.93676115  0.14575891  0.28253130     0.08000
C473        C  0.79991420  0.31780507  0.32131332     0.06000
C474        C  0.81767655  0.30002487  0.32130980     0.05900
C475        C  0.83945790  0.30435032  0.28305911    -0.14600
C476        C  0.84384152  0.32623418  0.24507331     0.06000
C477        C  0.82613003  0.34396770  0.24507941     0.05900
C478        C  0.80425262  0.33959493  0.28306805    -0.14600
H479        H  0.79074689  0.35342036  0.28305339     0.08000
H480        H  0.85326824  0.29082890  0.28303745     0.08000
C481        C  0.51736263  0.19889699  0.67887498     0.06000
C482        C  0.98172723  0.18113584  0.67888833     0.05900
C483        C  0.96416119  0.15926389  0.71705984    -0.14600
C484        C  0.98164710  0.15479422  0.75495778     0.06000
C485        C  0.51718725  0.17249663  0.75494257     0.05900
C486        C  0.53480279  0.19446388  0.71702460    -0.14600
H487        H  0.56220054  0.20797370  0.71702889     0.08000
H488        H  0.93675866  0.14546104  0.71709511     0.08000
C489        C  0.81739311  0.29974619  0.67900112     0.06000
C490        C  0.79962289  0.31751756  0.67902138     0.05900
C491        C  0.80393357  0.33927247  0.71730976    -0.14600
C492        C  0.82580395  0.34362757  0.75530443     0.06000
C493        C  0.84352456  0.32590607  0.75528259     0.05900
C494        C  0.83915764  0.30404567  0.71726683    -0.14600
H495        H  0.85297858  0.29054165  0.71726310     0.08000
H496        H  0.79043164  0.35309498  0.71734027     0.08000
C497        C  0.68108183  0.48184854  0.67900777     0.06000
C498        C  0.69884460  0.01748816  0.67901409     0.05900
C499        C  0.69442507  0.03491981  0.71719261    -0.14600
C500        C  0.67246805  0.01729234  0.75511620     0.06000
C501        C  0.65476415  0.48174836  0.75511037     0.05900
C502        C  0.65922406  0.46427380  0.71718651    -0.14600
H503        H  0.64541712  0.43686403  0.71720418     0.08000
H504        H  0.70793300  0.06231872  0.71721221     0.08000
C505        C  0.68111023  0.48183885  0.32094242     0.06000
C506        C  0.69885392  0.01747746  0.32098866     0.05900
C507        C  0.69443331  0.03492562  0.28283927    -0.14600
C508        C  0.67249578  0.01731840  0.24488837     0.06000
C509        C  0.65481546  0.48177522  0.24483243     0.05900
C510        C  0.65927296  0.46427959  0.28273124    -0.14600
H511        H  0.64548368  0.43687576  0.28267052     0.08000
H512        H  0.70792742  0.06232858  0.28286497     0.08000
C513        C  0.66634118  0.33320816  0.54689409     0.49100
H514        H  0.66631740  0.33319771  0.58686105     0.00100
C515        C  0.66638803  0.33321814  0.45310767     0.49200
H516        H  0.66640505  0.33321638  0.41314049     0.00100
C517        C  0.63267783  0.30655788  0.52455427    -0.13600
C518        C  0.67344889  0.36685516  0.52458422    -0.13300
C519        C  0.69291668  0.32620177  0.52462452    -0.13700
C520        C  0.63270062  0.30656492  0.47538030    -0.13700
C521        C  0.67347197  0.36685955  0.47540768    -0.13300
C522        C  0.69294258  0.32620928  0.47545387    -0.13600
C523        C  0.68425928  0.46238796  0.35939518    -0.14800
C524        C  0.68435054  0.44317013  0.38898510     0.09200
C525        C  0.68210069  0.41812121  0.42092413     0.11100
C526        C  0.67874220  0.39532079  0.44641292    -0.15700
C527        C  0.68423776  0.46241376  0.64053906    -0.14800
C528        C  0.68432575  0.44319157  0.61095301     0.09200
C529        C  0.68206807  0.41812875  0.57903418     0.11100
C530        C  0.67870727  0.39531804  0.55356573    -0.15700
C531        C  0.71597464  0.32077902  0.55362055    -0.14800
C532        C  0.73528924  0.31719754  0.57903414     0.09200
C533        C  0.75794469  0.31465059  0.61088178     0.11100
C534        C  0.77714627  0.31452472  0.64046260    -0.15700
C535        C  0.53692180  0.22153823  0.64043936    -0.14800
C536        C  0.55620549  0.24089604  0.61086807     0.09200
C537        C  0.58131834  0.26376658  0.57896270     0.11100
C538        C  0.60416805  0.28327863  0.55350902    -0.15700
C539        C  0.77739443  0.31475590  0.35983367    -0.14800
C540        C  0.75814155  0.31481996  0.38937561     0.09200
C541        C  0.73541828  0.31729227  0.42116658     0.11100
C542        C  0.71604865  0.32082200  0.44652515    -0.15700
C543        C  0.53691324  0.22173558  0.35933381    -0.14800
C544        C  0.55621258  0.24104413  0.38894046     0.09200
C545        C  0.58134575  0.26385360  0.42088200     0.11100
C546        C  0.60420248  0.28331972  0.44637089    -0.15700
C547        C  0.92931049  0.35519888  0.89745364    -0.14800
C548        C  0.90922833  0.34594521  0.86492771     0.09200
C549        C  0.88625162  0.33670131  0.82634164     0.11100
C550        C  0.86680010  0.33060418  0.79356991    -0.15700
C551        C  0.56897064  0.42496983  0.89729029    -0.14800
C552        C  0.58902716  0.43581288  0.86472994     0.09200
C553        C  0.61199073  0.44960971  0.82612299     0.11100
C554        C  0.63145072  0.46304955  0.79335661    -0.15700
C555        C  0.56907253  0.42506899  0.10256600    -0.14800
C556        C  0.58913205  0.43590838  0.13512509     0.09200
C557        C  0.61208272  0.44968105  0.17375327     0.11100
C558        C  0.63152439  0.46309571  0.20654902    -0.15700
C559        C  0.92945434  0.35533372  0.10272383    -0.14800
C560        C  0.90942437  0.34613950  0.13530992     0.09200
C561        C  0.88650515  0.33696636  0.17395480     0.11100
C562        C  0.86709138  0.33091428  0.20676189    -0.15700
C563        C  0.92504975  0.06927422  0.10249134    -0.14800
C564        C  0.93586427  0.08935548  0.13502807     0.09200
C565        C  0.94959777  0.11233185  0.17363475     0.10100
C566        C  0.96298767  0.13179516  0.20641677    -0.15700
C567        C  0.92494713  0.06905155  0.89721273    -0.14800
C568        C  0.93577210  0.08908646  0.86462465     0.09200
C569        C  0.94954066  0.11202842  0.82599040     0.11100
C570        C  0.96296006  0.13147899  0.79320806    -0.15700
C571        C  0.83051662  0.36689435  0.79361380    -0.14800
C572        C  0.83663454  0.38634016  0.82640135     0.09200
C573        C  0.84590628  0.40931417  0.86499660     0.11100
C574        C  0.85517802  0.42940076  0.89751978    -0.15700
C575        C  0.83082944  0.36723202  0.20677993    -0.14800
C576        C  0.83690132  0.38665904  0.17398485     0.09200
C577        C  0.84609837  0.40959158  0.13535323     0.11100
C578        C  0.85530863  0.42962689  0.10277301    -0.15700
C579        C  0.57344632  0.14327463  0.10262037    -0.14800
C580        C  0.56268552  0.15253971  0.13516853     0.09200
C581        C  0.54904011  0.16183680  0.17376315     0.11100
C582        C  0.53574835  0.16800461  0.20651319    -0.15700
C583        C  0.57344230  0.14314635  0.89723146    -0.14800
C584        C  0.56267539  0.15235686  0.86462655     0.09200
C585        C  0.54902151  0.16159133  0.82597418     0.11100
C586        C  0.53572732  0.16772044  0.79318810    -0.15700
C587        C  0.64306683  0.07353455  0.89737436    -0.14800
C588        C  0.65229875  0.06276353  0.86479919     0.09200
C589        C  0.66155397  0.04911218  0.82616491     0.11100
C590        C  0.66769263  0.03582387  0.79337868    -0.15700
C591        C  0.66771321  0.03586980  0.20666616    -0.14800
C592        C  0.66157309  0.04918127  0.17391473     0.09200
C593        C  0.65231727  0.06285480  0.13531156     0.11100
C594        C  0.64308245  0.07362874  0.10274537    -0.15700
C595        C  0.81461805  0.27750055  0.35982936    -0.14800
C596        C  0.81467545  0.25824422  0.38937198     0.09200
C597        C  0.81714297  0.23551770  0.42116263     0.11100
C598        C  0.82067238  0.21614747  0.44652110    -0.15700
C599        C  0.81438954  0.27727634  0.64042567    -0.14800
C600        C  0.81451636  0.25807460  0.61084420     0.09200
C601        C  0.81707079  0.23541638  0.57901004     0.11100
C602        C  0.82065780  0.21609817  0.55361031    -0.15700
C603        C  0.89519968  0.17882790  0.55351302    -0.14800
C604        C  0.91800967  0.18217963  0.57897000     0.09200
C605        C  0.94306692  0.18441694  0.61087657     0.11100
C606        C  0.96228538  0.18430922  0.64044743    -0.15700
C607        C  0.89517198  0.17887044  0.44635597    -0.14800
C608        C  0.91797740  0.18226737  0.42084614     0.09200
C609        C  0.94303816  0.18456953  0.38888410     0.11100
C610        C  0.96226574  0.18451699  0.35927665    -0.15700
C611        C  0.78316407  0.10429430  0.55357215    -0.14800
C612        C  0.76366377  0.08145276  0.57905094     0.09200
C613        C  0.74081069  0.05634464  0.61098081     0.11100
C614        C  0.72146888  0.03705872  0.64056676    -0.15700
C615        C  0.72146156  0.03703324  0.35945927    -0.14800
C616        C  0.74079569  0.05632532  0.38904788     0.09200
C617        C  0.76364331  0.08144914  0.42096603     0.11100
C618        C  0.78314246  0.10430120  0.44643251    -0.15700
C619        C  0.83309460  0.66646598  0.54689395     0.49100
H620        H  0.83310206  0.66645680  0.58686115     0.00100
C621        C  0.83306268  0.66648125  0.45310764     0.49200
H622        H  0.83304159  0.66648476  0.41314048     0.00100
C623        C  0.80643453  0.63279322  0.52458764    -0.13600
C624        C  0.82607889  0.69303559  0.52462120    -0.13300
C625        C  0.86672901  0.67356545  0.52455420    -0.13700
C626        C  0.80641882  0.63280022  0.47541341    -0.13700
C627        C  0.82606600  0.69304568  0.47545124    -0.13300
C628        C  0.86671301  0.67357520  0.47537721    -0.13600
O629        O  0.64901451  0.61541142  0.04841794    -0.68100
O630        O  0.61524087  0.64912588  0.95156029    -0.68300
O631        O  0.61524485  0.64918099  0.04834898    -0.68200
O632        O  0.64901086  0.61535967  0.95163076    -0.68200
O633        O  0.60138309  0.56773627  0.95168401    -0.68200
O634        O  0.56762636  0.60154841  0.04836495    -0.68200
O635        O  0.56762298  0.60149259  0.95161513    -0.68100
O636        O  0.60138601  0.56778872  0.04843142    -0.68300
V637        V  0.63120010  0.63134194  0.99999102     1.35200
V638        V  0.58542895  0.58556612  0.00002402     1.35200
C639        C  0.63080509  0.58599929  0.06502894     0.81100
C640        C  0.58582408  0.63090156  0.93497595     0.81200
C641        C  0.58582787  0.63097805  0.06494127     0.81100
C642        C  0.63079927  0.58593202  0.93506957     0.81000
O643        O  0.84932362  0.96532889  0.95169469    -0.68100
O644        O  0.88320335  0.53315505  0.04830500    -0.68300
O645        O  0.88314804  0.53304466  0.95153903    -0.68200
O646        O  0.84938287  0.96543953  0.04845838    -0.68200
O647        O  0.89698595  0.96565116  0.04843192    -0.68200
O648        O  0.93074048  0.53323494  0.95156072    -0.68200
O649        O  0.93079594  0.53334591  0.04828656    -0.68100
O650        O  0.89692637  0.96554004  0.95170757    -0.68300
V651        V  0.86719155  0.99924616  0.99999912     1.35200
V652        V  0.91293885  0.99943954  0.99999670     1.35200
C653        C  0.86750011  0.95417103  0.93514277     0.81100
C654        C  0.91262638  0.54451162  0.06485704     0.81200
C655        C  0.91255391  0.54436430  0.93494070     0.81100
C656        C  0.86758073  0.95431926  0.06505204     0.81000
O657        O  0.96542953  0.89694553  0.95165752    -0.68100
O658        O  0.53317950  0.93081231  0.04830251    -0.68300
O659        O  0.53312034  0.93075751  0.95157852    -0.68200
O660        O  0.96549140  0.89700386  0.04838226    -0.68200
O661        O  0.96527544  0.84939551  0.04843799    -0.68200
O662        O  0.53292806  0.88316098  0.95158528    -0.68200
O663        O  0.53298693  0.88321566  0.04835412    -0.68100
O664        O  0.96521370  0.84933734  0.95166977    -0.68300
V665        V  0.99930140  0.91295582  0.99998004     1.35200
V666        V  0.99910491  0.86720399  0.00001042     1.35200
C667        C  0.95406645  0.86751756  0.93509496     0.81100
C668        C  0.54433414  0.91264128  0.06490249     0.81200
C669        C  0.54425866  0.91257039  0.93498644     0.81100
C670        C  0.95415224  0.86759777  0.06501018     0.81000
C671        C  0.51735740  0.69914715  0.32084403     0.06000
C672        C  0.98171923  0.68139474  0.32080240     0.05900
C673        C  0.96416434  0.65955985  0.28258602    -0.14600
C674        C  0.98165946  0.65510640  0.24468377     0.06000
C675        C  0.51720059  0.67279673  0.24473258     0.05900
C676        C  0.53480529  0.69473738  0.28268270    -0.14600
H677        H  0.56220787  0.70823505  0.28270623     0.08000
H678        H  0.93676143  0.64575913  0.28253123     0.08000
C679        C  0.79991406  0.81780529  0.32131319     0.06000
C680        C  0.81767662  0.80002478  0.32130992     0.05900
C681        C  0.83945773  0.80435025  0.28305934    -0.14600
C682        C  0.84384167  0.82623390  0.24507343     0.06000
C683        C  0.82613003  0.84396788  0.24507938     0.05900
C684        C  0.80425272  0.83959506  0.28306797    -0.14600
H685        H  0.79074739  0.85342049  0.28305320     0.08000
H686        H  0.85326922  0.79082691  0.28303789     0.08000
C687        C  0.51736264  0.69889700  0.67887509     0.06000
C688        C  0.98172714  0.68113580  0.67888832     0.05900
C689        C  0.96416121  0.65926391  0.71705980    -0.14600
C690        C  0.98164691  0.65479411  0.75495783     0.06000
C691        C  0.51718722  0.67249664  0.75494261     0.05900
C692        C  0.53480291  0.69446395  0.71702471    -0.14600
H693        H  0.56220016  0.70797335  0.71702895     0.08000
H694        H  0.93675851  0.64546104  0.71709500     0.08000
C695        C  0.81739336  0.79974579  0.67900094     0.06000
C696        C  0.79962241  0.81751794  0.67902126     0.05900
C697        C  0.80393354  0.83927209  0.71730965    -0.14600
C698        C  0.82580344  0.84362799  0.75530444     0.06000
C699        C  0.84352480  0.82590565  0.75528251     0.05900
C700        C  0.83915731  0.80404579  0.71726679    -0.14600
H701        H  0.85297872  0.79054067  0.71726315     0.08000
H702        H  0.79042810  0.85309756  0.71734029     0.08000
C703        C  0.68108268  0.98185031  0.67900782     0.06000
C704        C  0.69884539  0.51748976  0.67901404     0.05900
C705        C  0.69442465  0.53491900  0.71719256    -0.14600
C706        C  0.67246882  0.51729398  0.75511626     0.06000
C707        C  0.65476506  0.98175012  0.75511027     0.05900
C708        C  0.65922373  0.96427317  0.71718642    -0.14600
H709        H  0.64542097  0.93687184  0.71720400     0.08000
H710        H  0.70793690  0.56232659  0.71721215     0.08000
C711        C  0.68110985  0.98183815  0.32094224     0.06000
C712        C  0.69885348  0.51747654  0.32098865     0.05900
C713        C  0.69443339  0.53492584  0.28283930    -0.14600
C714        C  0.67249527  0.51731736  0.24488849     0.06000
C715        C  0.65481520  0.98177471  0.24483218     0.05900
C716        C  0.65927314  0.96428007  0.28273081    -0.14600
H717        H  0.64548284  0.93687484  0.28266973     0.08000
H718        H  0.70792429  0.56232208  0.28286496     0.08000
C719        C  0.66634089  0.83320815  0.54689406     0.49100
H720        H  0.66631642  0.83319781  0.58686107     0.00100
C721        C  0.66638806  0.83321800  0.45310769     0.49200
H722        H  0.66640514  0.83321609  0.41314050     0.00100
C723        C  0.63267772  0.80655783  0.52455415    -0.13600
C724        C  0.67344874  0.86685513  0.52458410    -0.13300
C725        C  0.69291662  0.82620182  0.52462472    -0.13700
C726        C  0.63270063  0.80656475  0.47538023    -0.13700
C727        C  0.67347192  0.86685943  0.47540759    -0.13300
C728        C  0.69294258  0.82620923  0.47545407    -0.13600
C729        C  0.68425929  0.96238797  0.35939504    -0.14800
C730        C  0.68435056  0.94317023  0.38898493     0.09200
C731        C  0.68210068  0.91812120  0.42092426     0.11100
C732        C  0.67874217  0.89532079  0.44641283    -0.15700
C733        C  0.68423764  0.96241352  0.64053893    -0.14800
C734        C  0.68432572  0.94319157  0.61095298     0.09200
C735        C  0.68206805  0.91812872  0.57903427     0.11100
C736        C  0.67870724  0.89531801  0.55356561    -0.15700
C737        C  0.71597468  0.82077905  0.55362072    -0.14800
C738        C  0.73528919  0.81719747  0.57903399     0.09200
C739        C  0.75794464  0.81465049  0.61088179     0.11100
C740        C  0.77714634  0.81452465  0.64046262    -0.15700
C741        C  0.53692185  0.72153832  0.64043940    -0.14800
C742        C  0.55620544  0.74089604  0.61086809     0.09200
C743        C  0.58131835  0.76376657  0.57896265     0.11100
C744        C  0.60416797  0.78327858  0.55350896    -0.15700
C745        C  0.77739439  0.81475594  0.35983370    -0.14800
C746        C  0.75814171  0.81482003  0.38937556     0.09200
C747        C  0.73541830  0.81729235  0.42116662     0.11100
C748        C  0.71604872  0.82082197  0.44652520    -0.15700
C749        C  0.53691325  0.72173558  0.35933375    -0.14800
C750        C  0.55621262  0.74104407  0.38894041     0.09200
C751        C  0.58134577  0.76385356  0.42088193     0.11100
C752        C  0.60420252  0.78331965  0.44637079    -0.15700
C753        C  0.92931044  0.85519896  0.89745367    -0.14800
C754        C  0.90922835  0.84594516  0.86492783     0.09200
C755        C  0.88625151  0.83670120  0.82634150     0.11100
C756        C  0.86680001  0.83060422  0.79356998    -0.15700
C757        C  0.56897064  0.92496994  0.89729027    -0.14800
C758        C  0.58902718  0.93581298  0.86472991     0.09200
C759        C  0.61199073  0.94960979  0.82612301     0.11100
C760        C  0.63145056  0.96304929  0.79335661    -0.15700
C761        C  0.56907259  0.92506906  0.10256604    -0.14800
C762        C  0.58913214  0.93590844  0.13512522     0.09200
C763        C  0.61208276  0.94968109  0.17375340     0.11100
C764        C  0.63152455  0.96309607  0.20654887    -0.15700
C765        C  0.92945431  0.85533357  0.10272379    -0.14800
C766        C  0.90942432  0.84613947  0.13530981     0.09200
C767        C  0.88650512  0.83696630  0.17395475     0.11100
C768        C  0.86709134  0.83091412  0.20676199    -0.15700
C769        C  0.92504973  0.56927424  0.10249136    -0.14800
C770        C  0.93586419  0.58935530  0.13502785     0.09200
C771        C  0.94959775  0.61233181  0.17363488     0.10100
C772        C  0.96298753  0.63179500  0.20641668    -0.15700
C773        C  0.92494705  0.56905146  0.89721272    -0.14800
C774        C  0.93577205  0.58908641  0.86462466     0.09200
C775        C  0.94954071  0.61202844  0.82599053     0.11100
C776        C  0.96296010  0.63147897  0.79320813    -0.15700
C777        C  0.83051655  0.86689419  0.79361363    -0.14800
C778        C  0.83663449  0.88634017  0.82640142     0.09200
C779        C  0.84590628  0.90931419  0.86499657     0.11100
C780        C  0.85517806  0.92940085  0.89751972    -0.15700
C781        C  0.83082957  0.86723197  0.20677986    -0.14800
C782        C  0.83690133  0.88665906  0.17398481     0.09200
C783        C  0.84609833  0.90959157  0.13535334     0.11100
C784        C  0.85530861  0.92962693  0.10277293    -0.15700
C785        C  0.57344650  0.64327485  0.10262034    -0.14800
C786        C  0.56268554  0.65253967  0.13516848     0.09200
C787        C  0.54904012  0.66183683  0.17376315     0.11100
C788        C  0.53574838  0.66800464  0.20651314    -0.15700
C789        C  0.57344238  0.64314643  0.89723129    -0.14800
C790        C  0.56267541  0.65235682  0.86462648     0.09200
C791        C  0.54902149  0.66159127  0.82597403     0.11100
C792        C  0.53572736  0.66772039  0.79318805    -0.15700
C793        C  0.64306687  0.57353462  0.89737435    -0.14800
C794        C  0.65229871  0.56276350  0.86479914     0.09200
C795        C  0.66155398  0.54911221  0.82616483     0.11100
C796        C  0.66769249  0.53582352  0.79337854    -0.15700
C797        C  0.66771323  0.53586988  0.20666612    -0.14800
C798        C  0.66157314  0.54918131  0.17391485     0.09200
C799        C  0.65231726  0.56285475  0.13531161     0.11100
C800        C  0.64308232  0.57362861  0.10274537    -0.15700
C801        C  0.81461802  0.77750069  0.35982939    -0.14800
C802        C  0.81467541  0.75824418  0.38937187     0.09200
C803        C  0.81714290  0.73551763  0.42116263     0.11100
C804        C  0.82067244  0.71614752  0.44652106    -0.15700
C805        C  0.81438942  0.77727639  0.64042561    -0.14800
C806        C  0.81451639  0.75807464  0.61084424     0.09200
C807        C  0.81707078  0.73541639  0.57900997     0.11100
C808        C  0.82065779  0.71609812  0.55361029    -0.15700
C809        C  0.89519969  0.67882788  0.55351306    -0.14800
C810        C  0.91800961  0.68217951  0.57896996     0.09200
C811        C  0.94306694  0.68441686  0.61087659     0.11100
C812        C  0.96228541  0.68430924  0.64044737    -0.15700
C813        C  0.89517197  0.67887049  0.44635602    -0.14800
C814        C  0.91797735  0.68226732  0.42084616     0.09200
C815        C  0.94303811  0.68456948  0.38888413     0.11100
C816        C  0.96226573  0.68451702  0.35927667    -0.15700
C817        C  0.78316400  0.60429422  0.55357219    -0.14800
C818        C  0.76366378  0.58145275  0.57905083     0.09200
C819        C  0.74081062  0.55634462  0.61098089     0.11100
C820        C  0.72146867  0.53705841  0.64056685    -0.15700
C821        C  0.72146163  0.53703333  0.35945929    -0.14800
C822        C  0.74079564  0.55632525  0.38904783     0.09200
C823        C  0.76364324  0.58144903  0.42096591     0.11100
C824        C  0.78314246  0.60430113  0.44643263    -0.15700
loop_ 
_geom_bond_atom_site_label_1 
_geom_bond_atom_site_label_2 
_geom_bond_distance 
_geom_bond_site_symmetry_2 
_ccdc_geom_bond_type 
C1            H2   1.112       .  S
C1            C7   1.537       .  S
C1            C6   1.537       .  S
C1            C5   1.537       .  S
C3            H4   1.112       .  S
C3            C9   1.537       .  S
C3            C8   1.537       .  S
C3           C10   1.537       .  S
C5            C8   1.368       .  D
C5          C199   1.446       .  S
C6            C9   1.368       .  D
C6          C190   1.446       .  S
C7           C10   1.368       .  D
C7          C191   1.446       .  S
C8          C206   1.446       .  S
C9          C186   1.446       .  S
C10         C195   1.446       .  S
O11          V19   1.900   1_554  S
O11          C21   1.263       .  A
O12          V19   1.900       .  S
O12          C22   1.263       .  A
O13          V19   1.900   1_554  S
O13          C23   1.263       .  A
O14          V19   1.900       .  S
O14          C24   1.263       .  A
O15          V20   1.900   1_556  S
O15          C24   1.263       .  A
O16          V20   1.900       .  S
O16          C23   1.263       .  A
O17          V20   1.900   1_556  S
O17          C22   1.263       .  A
O18          V20   1.900       .  S
O18          C21   1.263       .  A
V19          V20   2.091   1_556  T
C21         C182   1.435       .  S
C22         C171   1.435       .  S
C23         C167   1.435       .  S
C24         C175   1.435       .  S
O25          V33   1.900       .  S
O25          C35   1.263       .  A
O26         V239   1.900   1_544  S
O26          C36   1.263       .  A
O27         V239   1.900   1_545  S
O27          C37   1.263       .  A
O28          V33   1.900   1_554  S
O28          C38   1.263       .  A
O29          V34   1.899   1_554  S
O29          C38   1.263       .  A
O30         V240   1.899   1_545  S
O30          C37   1.263       .  A
O31         V240   1.899   1_544  S
O31          C36   1.263       .  A
O32          V34   1.899       .  S
O32          C35   1.263       .  A
V33         O232   1.900   1_556  S
V33         O233   1.900       .  S
V33          V34   2.091       .  T
V34         O236   1.899       .  S
V34         O237   1.899   1_556  S
C35         C162   1.434       .  S
C36         C151   1.434       .  S
C37         C155   1.434       .  S
C38         C166   1.434       .  S
O39          V47   1.899       .  S
O39          C49   1.263       .  A
O40         V459   1.899   1_454  S
O40          C50   1.263       .  A
O41         V459   1.899   1_455  S
O41          C51   1.263       .  A
O42          V47   1.899   1_554  S
O42          C52   1.263       .  A
O43          V48   1.900       .  S
O43          C52   1.263       .  A
O44         V460   1.900   1_456  S
O44          C51   1.263       .  A
O45         V460   1.900   1_455  S
O45          C50   1.263       .  A
O46          V48   1.900   1_556  S
O46          C49   1.263       .  A
V47         O452   1.899   1_556  S
V47         O453   1.899       .  S
V47          V48   2.091   1_556  T
V48         O456   1.900   1_554  S
V48         O457   1.900       .  S
C49         C135   1.434       .  S
C50         C143   1.434       .  S
C51         C139   1.434       .  S
C52         C147   1.434       .  S
C53         C131   1.445       .  S
C53          C58   1.403       .  A
C53         C466   1.411   1_455  A
C54         C198   1.445       .  S
C54          C55   1.403       .  A
C54         C465   1.411       .  A
C55          C56   1.400       .  A
C55          H60   1.085       .  S
C56         C154   1.444       .  S
C56         C469   1.407       .  A
C57         C170   1.445       .  S
C57          C58   1.400       .  A
C57         C468   1.407   1_455  A
C58          H59   1.085       .  S
C61         C127   1.445       .  S
C61          C62   1.411       .  A
C61          C66   1.403       .  A
C62         C183   1.445       .  S
C62          C63   1.403       .  A
C63          C64   1.400       .  A
C63          H68   1.085       .  S
C64         C150   1.444       .  S
C64          C65   1.407       .  A
C65         C163   1.444       .  S
C65          C66   1.400       .  A
C66          H67   1.085       .  S
C69         C123   1.445       .  S
C69          C74   1.403       .  A
C69         C482   1.411   1_455  A
C70         C194   1.445       .  S
C70          C71   1.403       .  A
C70         C481   1.411       .  A
C71          C72   1.400       .  A
C71          H76   1.085       .  S
C72         C158   1.444       .  S
C72         C485   1.407       .  A
C73         C174   1.445       .  S
C73          C74   1.400       .  A
C73         C484   1.407   1_455  A
C74          H75   1.085       .  S
C77         C187   1.445       .  S
C77          C78   1.411       .  A
C77          C82   1.403       .  A
C78         C122   1.445       .  S
C78          C79   1.403       .  A
C79          C80   1.400       .  A
C79          H84   1.085       .  S
C80         C159   1.444       .  S
C80          C81   1.407       .  A
C81         C138   1.444       .  S
C81          C82   1.400       .  A
C82          H83   1.085       .  S
C85         C115   1.445       .  S
C85          C90   1.403       .  A
C85         C292   1.411       .  A
C86         C202   1.445       .  S
C86          C87   1.403       .  A
C86         C291   1.411   1_545  A
C87          C88   1.400       .  A
C87          H92   1.085       .  S
C88         C178   1.445       .  S
C88         C295   1.407   1_545  A
C89         C142   1.444       .  S
C89          C90   1.400       .  A
C89         C294   1.407       .  A
C90          H91   1.085       .  S
C93         C111   1.445       .  S
C93          C98   1.403       .  A
C93         C300   1.411       .  A
C94         C203   1.445       .  S
C94          C95   1.403       .  A
C94         C299   1.411   1_545  A
C95          C96   1.400       .  A
C95         H100   1.085       .  S
C96         C179   1.445       .  S
C96         C303   1.407   1_545  A
C97         C146   1.444       .  S
C97          C98   1.400       .  A
C97         C302   1.407       .  A
C98          H99   1.085       .  S
C101        H102   1.112       .  S
C101        C107   1.537       .  S
C101        C106   1.537       .  S
C101        C105   1.537       .  S
C103        H104   1.112       .  S
C103        C109   1.537       .  S
C103        C108   1.537       .  S
C103        C110   1.537       .  S
C105        C108   1.368       .  D
C105        C126   1.446       .  S
C106        C109   1.368       .  D
C106        C118   1.446       .  S
C107        C110   1.368       .  D
C107        C119   1.446       .  S
C108        C134   1.446       .  S
C109        C114   1.446       .  S
C110        C130   1.446       .  S
C111        C112   1.207       .  T
C112        C113   1.413       .  S
C113        C114   1.206       .  T
C115        C116   1.207       .  T
C116        C117   1.413       .  S
C117        C118   1.206       .  T
C119        C120   1.206       .  T
C120        C121   1.413       .  S
C121        C122   1.207       .  T
C123        C124   1.206       .  T
C124        C125   1.413       .  S
C125        C126   1.206       .  T
C127        C128   1.206       .  T
C128        C129   1.413       .  S
C129        C130   1.206       .  T
C131        C132   1.207       .  T
C132        C133   1.413       .  S
C133        C134   1.206       .  T
C135        C136   1.205       .  T
C136        C137   1.411       .  S
C137        C138   1.205       .  T
C139        C140   1.205       .  T
C140        C141   1.411       .  S
C141        C142   1.205       .  T
C143        C144   1.205       .  T
C144        C145   1.411       .  S
C145        C146   1.205       .  T
C147        C148   1.205       .  T
C148        C149   1.411       .  S
C149        C150   1.205       .  T
C151        C152   1.205       .  T
C152        C153   1.411       .  S
C153        C154   1.205       .  T
C155        C156   1.205       .  T
C156        C157   1.411       .  S
C157        C158   1.205       .  T
C159        C160   1.205       .  T
C160        C161   1.411       .  S
C161        C162   1.205       .  T
C163        C164   1.205       .  T
C164        C165   1.411       .  S
C165        C166   1.205       .  T
C167        C168   1.205       .  T
C168        C169   1.411       .  S
C169        C170   1.206       .  T
C171        C172   1.205       .  T
C172        C173   1.411       .  S
C173        C174   1.206       .  T
C175        C176   1.205       .  T
C176        C177   1.411       .  S
C177        C178   1.206       .  T
C179        C180   1.206       .  T
C180        C181   1.411       .  S
C181        C182   1.205       .  T
C183        C184   1.206       .  T
C184        C185   1.413       .  S
C185        C186   1.206       .  T
C187        C188   1.207       .  T
C188        C189   1.413       .  S
C189        C190   1.206       .  T
C191        C192   1.206       .  T
C192        C193   1.413       .  S
C193        C194   1.207       .  T
C195        C196   1.206       .  T
C196        C197   1.413       .  S
C197        C198   1.207       .  T
C199        C200   1.206       .  T
C200        C201   1.413       .  S
C201        C202   1.207       .  T
C203        C204   1.206       .  T
C204        C205   1.413       .  S
C205        C206   1.206       .  T
C207        H208   1.112       .  S
C207        C213   1.537       .  S
C207        C212   1.537       .  S
C207        C211   1.537       .  S
C209        H210   1.112       .  S
C209        C215   1.537       .  S
C209        C214   1.537       .  S
C209        C216   1.537       .  S
C211        C214   1.368       .  D
C211        C405   1.446       .  S
C212        C215   1.368       .  D
C212        C396   1.446       .  S
C213        C216   1.368       .  D
C213        C397   1.446       .  S
C214        C412   1.446       .  S
C215        C392   1.446       .  S
C216        C401   1.446       .  S
O217        V225   1.900   1_554  S
O217        C227   1.263       .  A
O218        V225   1.900       .  S
O218        C228   1.263       .  A
O219        V225   1.900   1_554  S
O219        C229   1.263       .  A
O220        V225   1.900       .  S
O220        C230   1.263       .  A
O221        V226   1.900   1_556  S
O221        C230   1.263       .  A
O222        V226   1.900       .  S
O222        C229   1.263       .  A
O223        V226   1.900   1_556  S
O223        C228   1.263       .  A
O224        V226   1.900       .  S
O224        C227   1.263       .  A
V225        V226   2.091   1_556  T
C227        C388   1.435       .  S
C228        C377   1.435       .  S
C229        C373   1.435       .  S
C230        C381   1.435       .  S
O231        V239   1.900       .  S
O231        C241   1.263       .  A
O232        C242   1.263       .  A
O233        C243   1.263       .  A
O234        V239   1.900   1_554  S
O234        C244   1.263       .  A
O235        V240   1.899   1_554  S
O235        C244   1.263       .  A
O236        C243   1.263       .  A
O237        C242   1.263       .  A
O238        V240   1.899       .  S
O238        C241   1.263       .  A
V239        V240   2.091       .  T
C241        C368   1.434       .  S
C242        C357   1.434       .  S
C243        C361   1.434       .  S
C244        C372   1.434       .  S
O245        V253   1.899       .  S
O245        C255   1.263       .  A
O246        V665   1.899   1_454  S
O246        C256   1.263       .  A
O247        V665   1.899   1_455  S
O247        C257   1.263       .  A
O248        V253   1.899   1_554  S
O248        C258   1.263       .  A
O249        V254   1.900       .  S
O249        C258   1.263       .  A
O250        V666   1.900   1_456  S
O250        C257   1.263       .  A
O251        V666   1.900   1_455  S
O251        C256   1.263       .  A
O252        V254   1.900   1_556  S
O252        C255   1.263       .  A
V253        O658   1.899   1_556  S
V253        O659   1.899       .  S
V253        V254   2.091   1_556  T
V254        O662   1.900   1_554  S
V254        O663   1.900       .  S
C255        C341   1.434       .  S
C256        C349   1.434       .  S
C257        C345   1.434       .  S
C258        C353   1.434       .  S
C259        C337   1.445       .  S
C259        C672   1.411   1_455  A
C259        C264   1.403       .  A
C260        C404   1.445       .  S
C260        C671   1.411       .  A
C260        C261   1.403       .  A
C261        C262   1.400       .  A
C261        H266   1.085       .  S
C262        C360   1.444       .  S
C262        C675   1.407       .  A
C263        C376   1.445       .  S
C263        C674   1.407   1_455  A
C263        C264   1.400       .  A
C264        H265   1.085       .  S
C267        C333   1.445       .  S
C267        C268   1.411       .  A
C267        C272   1.403       .  A
C268        C389   1.445       .  S
C268        C269   1.403       .  A
C269        C270   1.400       .  A
C269        H274   1.085       .  S
C270        C356   1.444       .  S
C270        C271   1.407       .  A
C271        C369   1.444       .  S
C271        C272   1.400       .  A
C272        H273   1.085       .  S
C275        C329   1.445       .  S
C275        C688   1.411   1_455  A
C275        C280   1.403       .  A
C276        C400   1.445       .  S
C276        C687   1.411       .  A
C276        C277   1.403       .  A
C277        C278   1.400       .  A
C277        H282   1.085       .  S
C278        C364   1.444       .  S
C278        C691   1.407       .  A
C279        C380   1.445       .  S
C279        C690   1.407   1_455  A
C279        C280   1.400       .  A
C280        H281   1.085       .  S
C283        C393   1.445       .  S
C283        C284   1.411       .  A
C283        C288   1.403       .  A
C284        C328   1.445       .  S
C284        C285   1.403       .  A
C285        C286   1.400       .  A
C285        H290   1.085       .  S
C286        C365   1.444       .  S
C286        C287   1.407       .  A
C287        C344   1.444       .  S
C287        C288   1.400       .  A
C288        H289   1.085       .  S
C291        C321   1.445       .  S
C291        C296   1.403       .  A
C292        C408   1.445       .  S
C292        C293   1.403       .  A
C293        C294   1.400       .  A
C293        H298   1.085       .  S
C294        C384   1.445       .  S
C295        C348   1.444       .  S
C295        C296   1.400       .  A
C296        H297   1.085       .  S
C299        C317   1.445       .  S
C299        C304   1.403       .  A
C300        C409   1.445       .  S
C300        C301   1.403       .  A
C301        C302   1.400       .  A
C301        H306   1.085       .  S
C302        C385   1.445       .  S
C303        C352   1.444       .  S
C303        C304   1.400       .  A
C304        H305   1.085       .  S
C307        H308   1.112       .  S
C307        C313   1.537       .  S
C307        C312   1.537       .  S
C307        C311   1.537       .  S
C309        H310   1.112       .  S
C309        C315   1.537       .  S
C309        C314   1.537       .  S
C309        C316   1.537       .  S
C311        C314   1.368       .  D
C311        C332   1.446       .  S
C312        C315   1.368       .  D
C312        C324   1.446       .  S
C313        C316   1.368       .  D
C313        C325   1.446       .  S
C314        C340   1.446       .  S
C315        C320   1.446       .  S
C316        C336   1.446       .  S
C317        C318   1.207       .  T
C318        C319   1.413       .  S
C319        C320   1.206       .  T
C321        C322   1.207       .  T
C322        C323   1.413       .  S
C323        C324   1.206       .  T
C325        C326   1.206       .  T
C326        C327   1.413       .  S
C327        C328   1.207       .  T
C329        C330   1.206       .  T
C330        C331   1.413       .  S
C331        C332   1.206       .  T
C333        C334   1.206       .  T
C334        C335   1.413       .  S
C335        C336   1.206       .  T
C337        C338   1.207       .  T
C338        C339   1.413       .  S
C339        C340   1.206       .  T
C341        C342   1.205       .  T
C342        C343   1.411       .  S
C343        C344   1.205       .  T
C345        C346   1.205       .  T
C346        C347   1.411       .  S
C347        C348   1.205       .  T
C349        C350   1.205       .  T
C350        C351   1.411       .  S
C351        C352   1.205       .  T
C353        C354   1.205       .  T
C354        C355   1.411       .  S
C355        C356   1.205       .  T
C357        C358   1.205       .  T
C358        C359   1.411       .  S
C359        C360   1.205       .  T
C361        C362   1.205       .  T
C362        C363   1.411       .  S
C363        C364   1.205       .  T
C365        C366   1.205       .  T
C366        C367   1.411       .  S
C367        C368   1.205       .  T
C369        C370   1.205       .  T
C370        C371   1.411       .  S
C371        C372   1.205       .  T
C373        C374   1.205       .  T
C374        C375   1.411       .  S
C375        C376   1.206       .  T
C377        C378   1.205       .  T
C378        C379   1.411       .  S
C379        C380   1.206       .  T
C381        C382   1.205       .  T
C382        C383   1.411       .  S
C383        C384   1.206       .  T
C385        C386   1.206       .  T
C386        C387   1.411       .  S
C387        C388   1.205       .  T
C389        C390   1.206       .  T
C390        C391   1.413       .  S
C391        C392   1.206       .  T
C393        C394   1.207       .  T
C394        C395   1.413       .  S
C395        C396   1.206       .  T
C397        C398   1.206       .  T
C398        C399   1.413       .  S
C399        C400   1.207       .  T
C401        C402   1.206       .  T
C402        C403   1.413       .  S
C403        C404   1.207       .  T
C405        C406   1.206       .  T
C406        C407   1.413       .  S
C407        C408   1.207       .  T
C409        C410   1.206       .  T
C410        C411   1.413       .  S
C411        C412   1.206       .  T
C413        H414   1.112       .  S
C413        C419   1.537       .  S
C413        C418   1.537       .  S
C413        C417   1.537       .  S
C415        H416   1.112       .  S
C415        C421   1.537       .  S
C415        C420   1.537       .  S
C415        C422   1.537       .  S
C417        C420   1.368       .  D
C417        C611   1.446       .  S
C418        C421   1.368       .  D
C418        C602   1.446       .  S
C419        C422   1.368       .  D
C419        C603   1.446       .  S
C420        C618   1.446       .  S
C421        C598   1.446       .  S
C422        C607   1.446       .  S
O423        V431   1.900   1_554  S
O423        C433   1.263       .  A
O424        V431   1.900       .  S
O424        C434   1.263       .  A
O425        V431   1.900   1_554  S
O425        C435   1.263       .  A
O426        V431   1.900       .  S
O426        C436   1.263       .  A
O427        V432   1.900   1_556  S
O427        C436   1.263       .  A
O428        V432   1.900       .  S
O428        C435   1.263       .  A
O429        V432   1.900   1_556  S
O429        C434   1.263       .  A
O430        V432   1.900       .  S
O430        C433   1.263       .  A
V431        V432   2.091   1_556  T
C433        C594   1.435       .  S
C434        C583   1.435       .  S
C435        C579   1.435       .  S
C436        C587   1.435       .  S
O437        V445   1.900       .  S
O437        C447   1.263       .  A
O438        V651   1.900   1_544  S
O438        C448   1.263       .  A
O439        V651   1.900   1_545  S
O439        C449   1.263       .  A
O440        V445   1.900   1_554  S
O440        C450   1.263       .  A
O441        V446   1.899   1_554  S
O441        C450   1.263       .  A
O442        V652   1.899   1_545  S
O442        C449   1.263       .  A
O443        V652   1.899   1_544  S
O443        C448   1.263       .  A
O444        V446   1.899       .  S
O444        C447   1.263       .  A
V445        O644   1.900   1_556  S
V445        O645   1.900       .  S
V445        V446   2.091       .  T
V446        O648   1.899       .  S
V446        O649   1.899   1_556  S
C447        C574   1.434       .  S
C448        C563   1.434       .  S
C449        C567   1.434       .  S
C450        C578   1.434       .  S
O451        V459   1.899       .  S
O451        C461   1.263       .  A
O452        C462   1.263       .  A
O453        C463   1.263       .  A
O454        V459   1.899   1_554  S
O454        C464   1.263       .  A
O455        V460   1.900       .  S
O455        C464   1.263       .  A
O456        C463   1.263       .  A
O457        C462   1.263       .  A
O458        V460   1.900   1_556  S
O458        C461   1.263       .  A
V459        V460   2.091   1_556  T
C461        C547   1.434       .  S
C462        C555   1.434       .  S
C463        C551   1.434       .  S
C464        C559   1.434       .  S
C465        C543   1.445       .  S
C465        C470   1.403       .  A
C466        C610   1.445       .  S
C466        C467   1.403       .  A
C467        C468   1.400       .  A
C467        H472   1.085       .  S
C468        C566   1.444       .  S
C469        C582   1.445       .  S
C469        C470   1.400       .  A
C470        H471   1.085       .  S
C473        C539   1.445       .  S
C473        C474   1.411       .  A
C473        C478   1.403       .  A
C474        C595   1.445       .  S
C474        C475   1.403       .  A
C475        C476   1.400       .  A
C475        H480   1.085       .  S
C476        C562   1.444       .  S
C476        C477   1.407       .  A
C477        C575   1.444       .  S
C477        C478   1.400       .  A
C478        H479   1.085       .  S
C481        C535   1.445       .  S
C481        C486   1.403       .  A
C482        C606   1.445       .  S
C482        C483   1.403       .  A
C483        C484   1.400       .  A
C483        H488   1.085       .  S
C484        C570   1.444       .  S
C485        C586   1.445       .  S
C485        C486   1.400       .  A
C486        H487   1.085       .  S
C489        C599   1.445       .  S
C489        C490   1.411       .  A
C489        C494   1.403       .  A
C490        C534   1.445       .  S
C490        C491   1.403       .  A
C491        C492   1.400       .  A
C491        H496   1.085       .  S
C492        C571   1.444       .  S
C492        C493   1.407       .  A
C493        C550   1.444       .  S
C493        C494   1.400       .  A
C494        H495   1.085       .  S
C497        C527   1.445       .  S
C497        C704   1.411       .  A
C497        C502   1.403       .  A
C498        C614   1.445       .  S
C498        C703   1.411   1_545  A
C498        C499   1.403       .  A
C499        C500   1.400       .  A
C499        H504   1.085       .  S
C500        C590   1.445       .  S
C500        C707   1.407   1_545  A
C501        C554   1.444       .  S
C501        C706   1.407       .  A
C501        C502   1.400       .  A
C502        H503   1.085       .  S
C505        C523   1.445       .  S
C505        C712   1.411       .  A
C505        C510   1.403       .  A
C506        C615   1.445       .  S
C506        C711   1.411   1_545  A
C506        C507   1.403       .  A
C507        C508   1.400       .  A
C507        H512   1.085       .  S
C508        C591   1.445       .  S
C508        C715   1.407   1_545  A
C509        C558   1.444       .  S
C509        C714   1.407       .  A
C509        C510   1.400       .  A
C510        H511   1.085       .  S
C513        H514   1.112       .  S
C513        C519   1.537       .  S
C513        C518   1.537       .  S
C513        C517   1.537       .  S
C515        H516   1.112       .  S
C515        C521   1.537       .  S
C515        C520   1.537       .  S
C515        C522   1.537       .  S
C517        C520   1.368       .  D
C517        C538   1.446       .  S
C518        C521   1.368       .  D
C518        C530   1.446       .  S
C519        C522   1.368       .  D
C519        C531   1.446       .  S
C520        C546   1.446       .  S
C521        C526   1.446       .  S
C522        C542   1.446       .  S
C523        C524   1.207       .  T
C524        C525   1.413       .  S
C525        C526   1.206       .  T
C527        C528   1.207       .  T
C528        C529   1.413       .  S
C529        C530   1.206       .  T
C531        C532   1.206       .  T
C532        C533   1.413       .  S
C533        C534   1.207       .  T
C535        C536   1.206       .  T
C536        C537   1.413       .  S
C537        C538   1.206       .  T
C539        C540   1.206       .  T
C540        C541   1.413       .  S
C541        C542   1.206       .  T
C543        C544   1.207       .  T
C544        C545   1.413       .  S
C545        C546   1.206       .  T
C547        C548   1.205       .  T
C548        C549   1.411       .  S
C549        C550   1.205       .  T
C551        C552   1.205       .  T
C552        C553   1.411       .  S
C553        C554   1.205       .  T
C555        C556   1.205       .  T
C556        C557   1.411       .  S
C557        C558   1.205       .  T
C559        C560   1.205       .  T
C560        C561   1.411       .  S
C561        C562   1.205       .  T
C563        C564   1.205       .  T
C564        C565   1.411       .  S
C565        C566   1.205       .  T
C567        C568   1.205       .  T
C568        C569   1.411       .  S
C569        C570   1.205       .  T
C571        C572   1.205       .  T
C572        C573   1.411       .  S
C573        C574   1.205       .  T
C575        C576   1.205       .  T
C576        C577   1.411       .  S
C577        C578   1.205       .  T
C579        C580   1.205       .  T
C580        C581   1.411       .  S
C581        C582   1.206       .  T
C583        C584   1.205       .  T
C584        C585   1.411       .  S
C585        C586   1.206       .  T
C587        C588   1.205       .  T
C588        C589   1.411       .  S
C589        C590   1.206       .  T
C591        C592   1.206       .  T
C592        C593   1.411       .  S
C593        C594   1.205       .  T
C595        C596   1.206       .  T
C596        C597   1.413       .  S
C597        C598   1.206       .  T
C599        C600   1.207       .  T
C600        C601   1.413       .  S
C601        C602   1.206       .  T
C603        C604   1.206       .  T
C604        C605   1.413       .  S
C605        C606   1.207       .  T
C607        C608   1.206       .  T
C608        C609   1.413       .  S
C609        C610   1.207       .  T
C611        C612   1.206       .  T
C612        C613   1.413       .  S
C613        C614   1.207       .  T
C615        C616   1.206       .  T
C616        C617   1.413       .  S
C617        C618   1.206       .  T
C619        H620   1.112       .  S
C619        C625   1.537       .  S
C619        C624   1.537       .  S
C619        C623   1.537       .  S
C621        H622   1.112       .  S
C621        C627   1.537       .  S
C621        C626   1.537       .  S
C621        C628   1.537       .  S
C623        C626   1.368       .  D
C623        C817   1.446       .  S
C624        C627   1.368       .  D
C624        C808   1.446       .  S
C625        C628   1.368       .  D
C625        C809   1.446       .  S
C626        C824   1.446       .  S
C627        C804   1.446       .  S
C628        C813   1.446       .  S
O629        V637   1.900   1_554  S
O629        C639   1.263       .  A
O630        V637   1.900       .  S
O630        C640   1.263       .  A
O631        V637   1.900   1_554  S
O631        C641   1.263       .  A
O632        V637   1.900       .  S
O632        C642   1.263       .  A
O633        V638   1.900   1_556  S
O633        C642   1.263       .  A
O634        V638   1.900       .  S
O634        C641   1.263       .  A
O635        V638   1.900   1_556  S
O635        C640   1.263       .  A
O636        V638   1.900       .  S
O636        C639   1.263       .  A
V637        V638   2.091   1_556  T
C639        C800   1.435       .  S
C640        C789   1.435       .  S
C641        C785   1.435       .  S
C642        C793   1.435       .  S
O643        V651   1.900       .  S
O643        C653   1.263       .  A
O644        C654   1.263       .  A
O645        C655   1.263       .  A
O646        V651   1.900   1_554  S
O646        C656   1.263       .  A
O647        V652   1.899   1_554  S
O647        C656   1.263       .  A
O648        C655   1.263       .  A
O649        C654   1.263       .  A
O650        V652   1.899       .  S
O650        C653   1.263       .  A
V651        V652   2.091       .  T
C653        C780   1.434       .  S
C654        C769   1.434       .  S
C655        C773   1.434       .  S
C656        C784   1.434       .  S
O657        V665   1.899       .  S
O657        C667   1.263       .  A
O658        C668   1.263       .  A
O659        C669   1.263       .  A
O660        V665   1.899   1_554  S
O660        C670   1.263       .  A
O661        V666   1.900       .  S
O661        C670   1.263       .  A
O662        C669   1.263       .  A
O663        C668   1.263       .  A
O664        V666   1.900   1_556  S
O664        C667   1.263       .  A
V665        V666   2.091   1_556  T
C667        C753   1.434       .  S
C668        C761   1.434       .  S
C669        C757   1.434       .  S
C670        C765   1.434       .  S
C671        C749   1.445       .  S
C671        C676   1.403       .  A
C672        C816   1.445       .  S
C672        C673   1.403       .  A
C673        C674   1.400       .  A
C673        H678   1.085       .  S
C674        C772   1.444       .  S
C675        C788   1.445       .  S
C675        C676   1.400       .  A
C676        H677   1.085       .  S
C679        C745   1.445       .  S
C679        C680   1.411       .  A
C679        C684   1.403       .  A
C680        C801   1.445       .  S
C680        C681   1.403       .  A
C681        C682   1.400       .  A
C681        H686   1.085       .  S
C682        C768   1.444       .  S
C682        C683   1.407       .  A
C683        C781   1.444       .  S
C683        C684   1.400       .  A
C684        H685   1.085       .  S
C687        C741   1.445       .  S
C687        C692   1.403       .  A
C688        C812   1.445       .  S
C688        C689   1.403       .  A
C689        C690   1.400       .  A
C689        H694   1.085       .  S
C690        C776   1.444       .  S
C691        C792   1.445       .  S
C691        C692   1.400       .  A
C692        H693   1.085       .  S
C695        C805   1.445       .  S
C695        C696   1.411       .  A
C695        C700   1.403       .  A
C696        C740   1.445       .  S
C696        C697   1.403       .  A
C697        C698   1.400       .  A
C697        H702   1.085       .  S
C698        C777   1.444       .  S
C698        C699   1.407       .  A
C699        C756   1.444       .  S
C699        C700   1.400       .  A
C700        H701   1.085       .  S
C703        C733   1.445       .  S
C703        C708   1.403       .  A
C704        C820   1.445       .  S
C704        C705   1.403       .  A
C705        C706   1.400       .  A
C705        H710   1.085       .  S
C706        C796   1.445       .  S
C707        C760   1.444       .  S
C707        C708   1.400       .  A
C708        H709   1.085       .  S
C711        C729   1.445       .  S
C711        C716   1.403       .  A
C712        C821   1.445       .  S
C712        C713   1.403       .  A
C713        C714   1.400       .  A
C713        H718   1.085       .  S
C714        C797   1.445       .  S
C715        C764   1.444       .  S
C715        C716   1.400       .  A
C716        H717   1.085       .  S
C719        H720   1.112       .  S
C719        C725   1.537       .  S
C719        C724   1.537       .  S
C719        C723   1.537       .  S
C721        H722   1.112       .  S
C721        C727   1.537       .  S
C721        C726   1.537       .  S
C721        C728   1.537       .  S
C723        C726   1.368       .  D
C723        C744   1.446       .  S
C724        C727   1.368       .  D
C724        C736   1.446       .  S
C725        C728   1.368       .  D
C725        C737   1.446       .  S
C726        C752   1.446       .  S
C727        C732   1.446       .  S
C728        C748   1.446       .  S
C729        C730   1.207       .  T
C730        C731   1.413       .  S
C731        C732   1.206       .  T
C733        C734   1.207       .  T
C734        C735   1.413       .  S
C735        C736   1.206       .  T
C737        C738   1.206       .  T
C738        C739   1.413       .  S
C739        C740   1.207       .  T
C741        C742   1.206       .  T
C742        C743   1.413       .  S
C743        C744   1.206       .  T
C745        C746   1.206       .  T
C746        C747   1.413       .  S
C747        C748   1.206       .  T
C749        C750   1.207       .  T
C750        C751   1.413       .  S
C751        C752   1.206       .  T
C753        C754   1.205       .  T
C754        C755   1.411       .  S
C755        C756   1.205       .  T
C757        C758   1.205       .  T
C758        C759   1.411       .  S
C759        C760   1.205       .  T
C761        C762   1.205       .  T
C762        C763   1.411       .  S
C763        C764   1.205       .  T
C765        C766   1.205       .  T
C766        C767   1.411       .  S
C767        C768   1.205       .  T
C769        C770   1.205       .  T
C770        C771   1.411       .  S
C771        C772   1.205       .  T
C773        C774   1.205       .  T
C774        C775   1.411       .  S
C775        C776   1.205       .  T
C777        C778   1.205       .  T
C778        C779   1.411       .  S
C779        C780   1.205       .  T
C781        C782   1.205       .  T
C782        C783   1.411       .  S
C783        C784   1.205       .  T
C785        C786   1.205       .  T
C786        C787   1.411       .  S
C787        C788   1.206       .  T
C789        C790   1.205       .  T
C790        C791   1.411       .  S
C791        C792   1.206       .  T
C793        C794   1.205       .  T
C794        C795   1.411       .  S
C795        C796   1.206       .  T
C797        C798   1.206       .  T
C798        C799   1.411       .  S
C799        C800   1.205       .  T
C801        C802   1.206       .  T
C802        C803   1.413       .  S
C803        C804   1.206       .  T
C805        C806   1.207       .  T
C806        C807   1.413       .  S
C807        C808   1.206       .  T
C809        C810   1.206       .  T
C810        C811   1.413       .  S
C811        C812   1.207       .  T
C813        C814   1.206       .  T
C814        C815   1.413       .  S
C815        C816   1.207       .  T
C817        C818   1.206       .  T
C818        C819   1.413       .  S
C819        C820   1.207       .  T
C821        C822   1.206       .  T
C822        C823   1.413       .  S
C823        C824   1.206       .  T
