geometry optimzed in LAMMPS
_audit_creation_date              2020-11-30 
_audit_creation_method            'lammps2cif' 
_symmetry_space_group_name_H-M    'P1' 
_symmetry_Int_Tables_number       1 
_symmetry_cell_setting            triclinic 
loop_ 
_symmetry_equiv_pos_as_xyz 
  x,y,z 
_cell_length_a                    27.215740162279584 
_cell_length_b                    28.52665112008611 
_cell_length_c                    34.33601076642167 
_cell_angle_alpha                 89.46940304682498 
_cell_angle_beta                  91.11808280198424 
_cell_angle_gamma                 90.96522229441585 
loop_ 
_atom_site_label 
_atom_site_type_symbol 
_atom_site_fract_x 
_atom_site_fract_y 
_atom_site_fract_z 
_atom_site_charge 
C1          C  0.06058023  0.12322498  0.29138187     0.02490
C2          C  0.06324141  0.13360978  0.25164822    -0.13660
C3          C  0.09577493  0.10940344  0.22784805    -0.00010
C4          C  0.12183991  0.07144023  0.24389302    -0.12180
C5          C  0.11890903  0.06103780  0.28369989     0.02480
C6          C  0.09011796  0.08838729  0.30728875    -0.11610
H7          H  0.03803773  0.15853064  0.23897121     0.08080
H8          H  0.14237872  0.04885652  0.22532065     0.05610
H9          H  0.08920909  0.08119158  0.33836981     0.05450
C10         C  0.44869988  0.39436516  0.28204954     0.02490
C11         C  0.43844633  0.43947284  0.29443924    -0.13660
C12         C  0.40052767  0.46463193  0.27676716    -0.00010
C13         C  0.38200115  0.45044665  0.24006901    -0.12180
C14         C  0.39968897  0.40910722  0.22309233     0.02480
C15         C  0.42892636  0.37901984  0.24631907    -0.11610
H16         H  0.45329437  0.45128973  0.32232056     0.08080
H17         H  0.35480036  0.47144483  0.22490883     0.05610
H18         H  0.43691765  0.34437874  0.23605310     0.05450
C19         C  0.96797255  0.88574451  0.78864830     0.02490
C20         C  0.94116366  0.91886413  0.76736745    -0.13660
C21         C  0.90834938  0.94781818  0.78554481    -0.00010
C22         C  0.90081291  0.94124374  0.82528403    -0.12180
C23         C  0.92363058  0.90420970  0.84633151     0.02480
C24         C  0.95976816  0.87854351  0.82833607    -0.11610
H25         H  0.94611595  0.92212053  0.73616252     0.07760
H26         H  0.87817810  0.96589559  0.83998209     0.05610
H27         H  0.98112464  0.85339066  0.84489544     0.05450
C28         C  0.57347405  0.61262531  0.78442738     0.02490
C29         C  0.58480216  0.62682113  0.82242620    -0.13660
C30         C  0.61652394  0.60002868  0.84643024    -0.00010
C31         C  0.63972159  0.56068549  0.83005460    -0.12180
C32         C  0.62837151  0.54728885  0.79136793     0.02480
C33         C  0.59482745  0.57311881  0.76948467    -0.11610
H34         H  0.56763499  0.65785275  0.83347189     0.08080
H35         H  0.66481979  0.53969706  0.84743639     0.05610
H36         H  0.58696167  0.56375846  0.73939065     0.05450
O37         O  0.03625473  0.74950335  0.66217320    -0.81530
O38         O  0.16003408  0.62435360  0.56840413    -0.66220
O39         O  0.11429390  0.70761911  0.64076928    -1.12820
C40         C  0.18215672  0.81931326  0.55462647     1.05360
O41         O  0.22123780  0.66707228  0.55950966    -0.79430
O42         O  0.22756759  0.71169714  0.61752416    -0.67010
Ni43       Ni  0.04727193  0.68631510  0.64461480     1.34870
C44         C  0.23403216  0.74541924  0.63910423     0.84100
O45         O  0.13316132  0.61589345  0.63771399    -0.79970
O46         O  0.05539271  0.61673549  0.62865764    -0.90240
C47         C  0.18175094  0.65070150  0.54656083     0.83670
O48         O  0.02503441  0.70625076  0.59294077    -0.68440
O49         O  0.21645260  0.79705887  0.57124410    -0.87730
C50         C  0.03934016  0.68443441  0.56348961     0.84500
C51         C  0.09546289  0.59278364  0.63155589     1.06070
H52         H  0.12627035  0.73517833  0.55737072     0.37870
O53         O  0.15068733  0.72622189  0.57666879    -1.10390
O54         O  0.19726816  0.77388625  0.64081220    -0.67040
Ni55       Ni  0.12977025  0.76597801  0.61319514     1.26350
O56         O  0.07849956  0.66037802  0.56831536    -0.67270
O57         O  0.14179212  0.81993090  0.57424438    -0.79560
C58         C  0.06151510  0.78710245  0.67022825     0.83880
O59         O  0.10046426  0.80069865  0.65256388    -0.66740
Ni60       Ni  0.21887640  0.73074109  0.56464770     1.27450
Ni61       Ni  0.13829236  0.66787494  0.60431669     1.26060
H62         H  0.13209302  0.70494708  0.66530599     0.38420
O63         O  0.48547391  0.75882151  0.66977101    -0.81530
O64         O  0.35905505  0.88658181  0.57387037    -0.66220
O65         O  0.40722081  0.80036421  0.64600565    -1.12820
C66         C  0.33828059  0.69200115  0.55616227     1.05360
O67         O  0.29808945  0.84396773  0.56261527    -0.79430
O68         O  0.29355557  0.79611761  0.62006187    -0.67010
Ni69       Ni  0.47444771  0.82187070  0.65068238     1.34870
C70         C  0.28717815  0.76109566  0.64052492     0.84100
O71         O  0.38990904  0.89361653  0.64245007    -0.79970
O72         O  0.46713970  0.89157825  0.63336502    -0.90240
C73         C  0.33748939  0.86106924  0.55101764     0.83670
O74         O  0.49331535  0.80149413  0.59917704    -0.68440
O75         O  0.30389611  0.71328519  0.57224279    -0.87730
C76         C  0.47770291  0.82365279  0.56943741     0.84500
C77         C  0.42768187  0.91621071  0.63549061     1.06070
H78         H  0.39253985  0.77600647  0.56234197     0.37870
O79         O  0.36861545  0.78434492  0.58129999    -1.10390
O80         O  0.32428448  0.73281397  0.64312884    -0.67040
Ni81       Ni  0.39138032  0.74284184  0.61703172     1.26350
O82         O  0.44002900  0.84909363  0.57418891    -0.67270
O83         O  0.37898622  0.69098684  0.57661028    -0.79560
C84         C  0.46486132  0.71784617  0.67201138     0.83880
O85         O  0.42423137  0.70521377  0.65494595    -0.66740
Ni86       Ni  0.30078492  0.77998786  0.56698161     1.27450
Ni87       Ni  0.38196235  0.84177016  0.60962467     1.26060
H88         H  0.39012144  0.80187227  0.67035976     0.38420
O89         O  0.26043870  0.54326495  0.39952477    -0.81530
O90         O  0.12672440  0.65582965  0.49511350    -0.66220
O91         O  0.21607287  0.61485088  0.42348418    -1.12820
C92         C  0.33028801  0.68472335  0.51145866     1.05360
O93         O  0.16937962  0.71550766  0.50505275    -0.79430
O94         O  0.21735399  0.72441386  0.44731494    -0.67010
Ni95       Ni  0.19556017  0.54996392  0.42027964     1.34870
C96         C  0.25315744  0.73213622  0.42678005     0.84100
O97         O  0.11824099  0.62665028  0.42757982    -0.79970
O98         O  0.12343453  0.55344561  0.43911724    -0.90240
C99         C  0.15358760  0.67708283  0.51736789     0.83670
O100        O  0.22073056  0.53124369  0.47166953    -0.68440
O101        O  0.30600638  0.71677227  0.49492425    -0.87730
C102        C  0.19750254  0.54447956  0.50112572     0.84500
C103        C  0.09635705  0.59028958  0.43679032     1.06070
H104        H  0.24498745  0.62936795  0.50673179     0.37870
O105        O  0.23443465  0.65185027  0.48732081    -1.10390
O106        O  0.28376691  0.69750899  0.42434956    -0.67040
Ni107      Ni  0.27729864  0.63240681  0.45130409     1.26350
O108        O  0.17041123  0.58039101  0.49604989    -0.67270
O109        O  0.33282682  0.64633657  0.49135758    -0.79560
C110        C  0.30249697  0.56413739  0.39563495     0.83880
O111        O  0.31607962  0.60264722  0.41271309    -0.66740
Ni112      Ni  0.23631908  0.71648970  0.50050228     1.27450
Ni113      Ni  0.17352504  0.63658443  0.45972626     1.26060
H114        H  0.21232872  0.63126115  0.39887738     0.38420
O115        O  0.25706382  0.97470632  0.40445981    -0.81530
O116        O  0.39288327  0.85802883  0.50111996    -0.66220
O117        O  0.30388441  0.90130808  0.42695743    -1.12820
C118        C  0.18965196  0.82793491  0.51014707     1.05360
O119        O  0.35036896  0.79791702  0.50917136    -0.79430
O120        O  0.30349947  0.79042979  0.44986214    -0.67010
Ni121      Ni  0.32321940  0.96659795  0.42500939     1.34870
C122        C  0.26813092  0.78358491  0.42771079     0.84100
O123        O  0.40106777  0.88875551  0.43339183    -0.79970
O124        O  0.39624501  0.96213174  0.44396609    -0.90240
C125        C  0.36586870  0.83595475  0.52230734     0.83670
O126        O  0.30019738  0.98345627  0.47628457    -0.68440
O127        O  0.21409123  0.79660397  0.49406002    -0.87730
C128        C  0.32453488  0.96944922  0.50577521     0.84500
C129        C  0.42319153  0.92520796  0.44204069     1.06070
H130        H  0.27484228  0.88434123  0.50924081     0.37870
O131        O  0.28545660  0.86237580  0.49008005    -1.10390
O132        O  0.23738363  0.81812815  0.42481299    -0.67040
Ni133      Ni  0.24295593  0.88226700  0.45250906     1.26350
O134        O  0.35115066  0.93347591  0.50093297    -0.67270
O135        O  0.18698966  0.86691608  0.49024917    -0.79560
C136        C  0.21842853  0.94986473  0.39520841     0.83880
O137        O  0.20531923  0.91114156  0.41202415    -0.66740
Ni138      Ni  0.28363347  0.79699811  0.50231956     1.27450
Ni139      Ni  0.34634869  0.87837838  0.46431210     1.26060
H140        H  0.30782422  0.88591278  0.40227937     0.38420
O141        O  0.54945051  0.98892163  0.57522032    -0.81530
O142        O  0.63950855  0.93170117  0.41697490    -0.66220
O143        O  0.56582566  0.97281052  0.49879833    -1.12820
C144        C  0.51231672  0.83202915  0.53522288     1.05360
O145        O  0.58790811  0.86823930  0.40757200    -0.79430
O146        O  0.50505042  0.89819120  0.43347539    -0.67010
Ni147      Ni  0.58723300  0.01721661  0.53731560     1.34870
C148        C  0.47587513  0.91694869  0.45639872     0.84100
O149        O  0.60691370  0.02350576  0.44124906    -0.79970
O150        O  0.62706415  0.04674746  0.49895703    -0.90240
C151        C  0.61673255  0.90116335  0.39490963     0.83670
O152        O  0.62780030  0.96678381  0.55086591    -0.68440
O153        O  0.50349374  0.82987003  0.49797920    -0.87730
C154        C  0.66885022  0.97108904  0.53698338     0.84500
C155        C  0.60856743  0.05724581  0.46617153     1.06070
H156        H  0.62229516  0.87787611  0.49224628     0.37870
O157        O  0.59333694  0.89325698  0.48206608    -1.10390
O158        O  0.48726885  0.91440816  0.49268739    -0.67040
Ni159      Ni  0.55290308  0.91241942  0.52155713     1.26350
O160        O  0.67024138  0.96830834  0.49858624    -0.67270
O161        O  0.55036743  0.85302899  0.54468603    -0.79560
C162        C  0.51138262  0.97166203  0.56030079     0.83880
O163        O  0.50959259  0.92899333  0.56080371    -0.66740
Ni164      Ni  0.54990401  0.85110821  0.45304556     1.27450
Ni165      Ni  0.60792519  0.95633725  0.46170865     1.26060
H166        H  0.54200714  0.98195525  0.47912904     0.38420
O167        O  0.50753214  0.03388533  0.51542693    -0.81530
O168        O  0.43371991  0.12956577  0.65919774    -0.66220
O169        O  0.48274641  0.05048648  0.58605675    -1.12820
C170        C  0.33602267  0.00352970  0.53911132     1.05360
O171        O  0.37002442  0.07797206  0.66873036    -0.79430
O172        O  0.39791752  0.99518534  0.64371663    -0.67010
Ni173      Ni  0.53704215  0.06651223  0.55484140     1.34870
C174        C  0.41845550  0.96662425  0.62160597     0.84100
O175        O  0.52825221  0.08873572  0.64935389    -0.79970
O176        O  0.56135031  0.10432677  0.59545430    -0.90240
C177        C  0.40191638  0.10879039  0.68114631     0.83670
O178        O  0.50033694  0.11136756  0.52919247    -0.68440
O179        O  0.32977841  0.99795594  0.57639028    -0.87730
C180        C  0.49304293  0.15028609  0.54298515     0.84500
C181        C  0.56654015  0.08555919  0.62849497     1.06070
H182        H  0.38432699  0.10780134  0.58224670     0.37870
O183        O  0.39898920  0.08043292  0.59414438    -1.10390
O184        O  0.41845837  0.97728906  0.58552172    -0.67040
Ni185      Ni  0.42233051  0.03921069  0.55736627     1.26350
O186        O  0.48126518  0.15167934  0.58063719    -0.67270
O187        O  0.36310326  0.03646045  0.52919469    -0.79560
C188        C  0.48756633  0.99728803  0.52766431     0.83880
O189        O  0.44330598  0.99473184  0.52187719    -0.66740
Ni190      Ni  0.35224646  0.04135678  0.62230704     1.27450
Ni191      Ni  0.46277145  0.09405949  0.61954978     1.26060
H192        H  0.48915559  0.02714451  0.60585996     0.38420
O193        O  0.68433892  0.18948175  0.53413084    -0.81530
O194        O  0.59121593  0.30059276  0.41051306    -0.66220
O195        O  0.63365339  0.25766798  0.50600034    -1.12820
C196        C  0.58864665  0.10766859  0.46162378     1.05360
O197        O  0.52271518  0.25486557  0.42044059    -0.79430
O198        O  0.50258151  0.17506102  0.47439791    -0.67010
Ni199      Ni  0.70067647  0.24940265  0.51546875     1.34870
C200        C  0.50762411  0.18749719  0.51045066     0.84100
O201        O  0.64032600  0.34189004  0.48358062    -0.79970
O202        O  0.71159613  0.31135508  0.49488333    -0.90240
C203        C  0.54667159  0.28772712  0.40202322     0.83670
O204        O  0.71318807  0.21848556  0.46710176    -0.68440
O205        O  0.57067381  0.12539997  0.42992711    -0.87730
C206        C  0.72253135  0.24619877  0.43975064     0.84500
C207        C  0.67953617  0.33905037  0.50640830     1.06070
H208        H  0.63067053  0.19972436  0.43347704     0.37870
O209        O  0.60397965  0.21433674  0.44661817    -1.10390
O210        O  0.54111322  0.21798455  0.51561656    -0.67040
Ni211      Ni  0.60617823  0.19978276  0.49925633     1.26350
O212        O  0.68777670  0.27572566  0.43190015    -0.67270
O213        O  0.58905652  0.13275411  0.49259085    -0.79560
C214        C  0.64536210  0.17783034  0.55193517     0.83880
O215        O  0.60673017  0.19778764  0.55045734    -0.66740
Ni216      Ni  0.54370033  0.19006376  0.42660921     1.27450
Ni217      Ni  0.62026374  0.28026760  0.45798594     1.26060
H218        H  0.61699181  0.27468083  0.52597108     0.38420
O219        O  0.84073509  0.29950924  0.56010285    -0.81530
O220        O  0.69592581  0.41664361  0.65049238    -0.66220
O221        O  0.77904223  0.36754472  0.57626340    -1.12820
C222        C  0.91004080  0.42993255  0.63869268     1.05360
O223        O  0.73920626  0.48325110  0.64130372    -0.79430
O224        O  0.81003795  0.49644206  0.58173580    -0.67010
Ni225      Ni  0.77346204  0.30247095  0.56263588     1.34870
C226        C  0.83887820  0.47557892  0.55894135     0.84100
O227        O  0.67910054  0.37682949  0.57262970    -0.79970
O228        O  0.70322915  0.30580973  0.56767457    -0.90240
C229        C  0.71014546  0.45763022  0.66214658     0.83670
O230        O  0.79080541  0.28778112  0.61514224    -0.68440
O231        O  0.88420907  0.46760372  0.63552730    -0.87730
C232        C  0.75502605  0.28288760  0.63626430     0.84500
C233        C  0.68153024  0.34014524  0.55137910     1.06070
H234        H  0.79563273  0.39544565  0.66542531     0.37870
O235        O  0.79363708  0.40847350  0.63936133    -1.10390
O236        O  0.85292835  0.43494570  0.57068612    -0.67040
Ni237      Ni  0.83779266  0.38159964  0.60749929     1.26350
O238        O  0.72707171  0.32035054  0.63858332    -0.67270
O239        O  0.88842051  0.39212840  0.64393252    -0.79560
C240        C  0.86085099  0.33715278  0.54985001     0.83880
O241        O  0.88520624  0.35635929  0.57542941    -0.66740
Ni242      Ni  0.81019099  0.47546352  0.63805948     1.27450
Ni243      Ni  0.73421833  0.38763034  0.61177756     1.26060
H244        H  0.77226956  0.39043722  0.55611726     0.38420
O245        O  0.65717809  0.14455150  0.60556983    -0.81530
O246        O  0.81696537  0.09788017  0.65637646    -0.66220
O247        O  0.73606281  0.12587039  0.57153149    -1.12820
C248        C  0.61288191  0.05477371  0.63379479     1.05360
O249        O  0.78251019  0.02472976  0.64849878    -0.79430
O250        O  0.69877411  0.98847035  0.60414495    -0.67010
Ni251      Ni  0.71529026  0.17756381  0.59110605     1.34870
C252        C  0.70272540  0.99715507  0.56672191     0.84100
O253        O  0.82847205  0.15025110  0.58197675    -0.79970
O254        O  0.77431301  0.20704535  0.57018138    -0.90240
C255        C  0.81230574  0.05391885  0.66624139     0.83670
O256        O  0.69713787  0.22775598  0.61870790    -0.68440
O257        O  0.63896054  0.04295409  0.66378237    -0.87730
C258        C  0.73706225  0.23076858  0.63714882     0.84500
C259        C  0.81325478  0.18512457  0.56084134     1.06070
H260        H  0.70641104  0.10794218  0.65354485     0.37870
O261        O  0.72085249  0.08723449  0.63499929    -1.10390
O262        O  0.71639641  0.03788393  0.55780429    -0.67040
Ni263      Ni  0.68587828  0.08540512  0.58801943     1.26350
O264        O  0.76622253  0.19185728  0.63950696    -0.67270
O265        O  0.63297095  0.04562674  0.60273567    -0.79560
C266        C  0.64241734  0.13888302  0.57075416     0.83880
O267        O  0.64639922  0.10208373  0.55047937    -0.66740
Ni268      Ni  0.71167302  0.02722895  0.65444801     1.27450
Ni269      Ni  0.77735767  0.12067260  0.61393931     1.26060
H270        H  0.74749123  0.12341843  0.54511649     0.38420
O271        O  0.79831887  0.35071680  0.50430707    -0.81530
O272        O  0.91013995  0.19316730  0.42502153    -0.66220
O273        O  0.86686022  0.28344274  0.49302374    -1.12820
C274        C  0.93623479  0.39858201  0.42148533     1.05360
O275        O  0.98155644  0.23171272  0.43394045    -0.79430
O276        O  0.00093776  0.30286692  0.48476244    -0.67010
Ni277      Ni  0.79748457  0.28622935  0.50373091     1.34870
C278        C  0.98458306  0.33322026  0.50795830     0.84100
O279        O  0.86748614  0.18880431  0.50183336    -0.79970
O280        O  0.79606540  0.22019063  0.50211448    -0.90240
C281        C  0.95455943  0.20183144  0.41533873     0.83670
O282        O  0.78856400  0.29635808  0.44950724    -0.68440
O283        O  0.97324683  0.37015803  0.42449063    -0.87730
C284        C  0.77752438  0.25865617  0.43414304     0.84500
C285        C  0.82812756  0.19729186  0.52025413     1.06070
H286        H  0.89228950  0.29021588  0.40367624     0.37870
O287        O  0.90717770  0.28909867  0.42945053    -1.10390
O288        O  0.94318565  0.35104318  0.49719720    -0.67040
Ni289      Ni  0.88462941  0.33604625  0.46117489     1.26350
O290        O  0.81364304  0.22888750  0.43332716    -0.67270
O291        O  0.89411883  0.38227004  0.42290627    -0.79560
C292        C  0.83823888  0.36486230  0.51789547     0.83880
O293        O  0.86447805  0.38391317  0.49378241    -0.66740
Ni294      Ni  0.97744015  0.29928156  0.42909731     1.27450
Ni295      Ni  0.88345290  0.23599392  0.46019731     1.26060
H296        H  0.89107463  0.27657472  0.51314969     0.38420
O297        O  0.96128423  0.51467860  0.55403190    -0.81530
O298        O  0.87140522  0.57351274  0.41214810    -0.66220
O299        O  0.96208466  0.53463270  0.48382059    -1.12820
C300        C  0.00258153  0.67514141  0.52948025     1.05360
O301        O  0.92403269  0.63595501  0.40131330    -0.79430
O302        O  0.01283030  0.61483092  0.42751218    -0.67010
Ni303      Ni  0.96176998  0.47874878  0.50959018     1.34870
C304        C  0.04414961  0.59792452  0.45103046     0.84100
O305        O  0.90827050  0.48116538  0.43120467    -0.79970
O306        O  0.97090278  0.44768473  0.46324605    -0.90240
C307        C  0.89248675  0.60432018  0.38940928     0.83670
O308        O  0.89436033  0.46535386  0.50887258    -0.68440
O309        O  0.00886492  0.68059953  0.49215595    -0.87730
C310        C  0.86409173  0.49426177  0.52008137     0.84500
C311        C  0.94030332  0.44728287  0.43597466     1.06070
H312        H  0.89631395  0.62473075  0.48399741     0.37870
O313        O  0.92569996  0.61118332  0.47385316    -1.10390
O314        O  0.03356812  0.59895484  0.48734773    -0.67040
Ni315      Ni  0.96714493  0.59294681  0.51360566     1.26350
O316        O  0.86248140  0.53325210  0.49903494    -0.67270
O317        O  0.96644741  0.65086331  0.53875024    -0.79560
C318        C  0.00280991  0.53521310  0.55043771     0.83880
O319        O  0.00522522  0.57657315  0.55761175    -0.66740
Ni320      Ni  0.96347325  0.65690201  0.44617530     1.27450
Ni321      Ni  0.91189490  0.54798663  0.45299887     1.26060
H322        H  0.98737417  0.53255097  0.46474366     0.38420
O323        O  0.03532209  0.47781626  0.50943717    -0.81530
O324        O  0.09057820  0.37749007  0.65143112    -0.66220
O325        O  0.04202278  0.46274696  0.58097725    -1.12820
C326        C  0.18648605  0.50937421  0.53407773     1.05360
O327        O  0.15370572  0.42947693  0.66232787    -0.79430
O328        O  0.12680001  0.51335758  0.63869590    -0.67010
Ni329      Ni  0.99470917  0.44839372  0.54409629     1.34870
C330        C  0.10553393  0.54343518  0.61727571     0.84100
O331        O  0.99809000  0.41636050  0.63745158    -0.79970
O332        O  0.95413327  0.41944769  0.58207556    -0.90240
C333        C  0.12129314  0.39931100  0.67445428     0.83670
O334        O  0.02910487  0.39995380  0.52310218    -0.68440
O335        O  0.19413487  0.51263612  0.57159808    -0.87730
C336        C  0.01919536  0.36199251  0.53740864     0.84500
C337        C  0.95746765  0.42444435  0.61896346     1.06070
H338        H  0.13832837  0.40302267  0.57309147     0.37870
O339        O  0.12429092  0.42908600  0.58650804    -1.10390
O340        O  0.10580627  0.53568594  0.58120737    -0.67040
Ni341      Ni  0.10094940  0.47574035  0.55292533     1.26350
O342        O  0.03164414  0.35892290  0.57487181    -0.67270
O343        O  0.15743642  0.47844894  0.52344104    -0.79560
C344        C  0.03984237  0.51749181  0.52289157     0.83880
O345        O  0.08212784  0.53099134  0.52513458    -0.66740
Ni346      Ni  0.17151176  0.46727169  0.61657829     1.27450
Ni347      Ni  0.06122552  0.41468373  0.61135884     1.26060
H348        H  0.03334163  0.48594750  0.59983106     0.38420
C349        C  0.13193767  0.43484924  0.78131462     0.02490
C350        C  0.14473489  0.42658600  0.74245145    -0.13660
C351        C  0.11420491  0.39809496  0.71773354    -0.00010
C352        C  0.07149093  0.37732964  0.73365978    -0.12180
C353        C  0.05868726  0.38623615  0.77250348     0.02480
C354        C  0.08891266  0.41504600  0.79556973    -0.11610
H355        H  0.17754513  0.44357327  0.73135832     0.08080
H356        H  0.04743167  0.35543993  0.71577721     0.05610
H357        H  0.08006182  0.42051580  0.82584597     0.05450
C358        C  0.37749003  0.09140369  0.78922550     0.02490
C359        C  0.36890247  0.09673659  0.74883137    -0.13660
C360        C  0.40675049  0.11362777  0.72422954    -0.00010
C361        C  0.45335839  0.12454671  0.74095480    -0.12180
C362        C  0.46179688  0.11988732  0.78129885     0.02480
C363        C  0.42371105  0.10296641  0.80451315    -0.11610
H364        H  0.33369875  0.08574396  0.73646404     0.08080
H365        H  0.48349249  0.13428451  0.72238323     0.05610
H366        H  0.43035273  0.09787165  0.83543206     0.05450
C367        C  0.88325229  0.55000751  0.28832037     0.02490
C368        C  0.87272660  0.55802888  0.32786681    -0.13660
C369        C  0.88938808  0.59995650  0.34600746    -0.00010
C370        C  0.91483559  0.63397726  0.32300704    -0.12180
C371        C  0.92477288  0.62551845  0.28390239     0.02480
C372        C  0.90884624  0.58397392  0.26718987    -0.11610
H373        H  0.85368638  0.53116572  0.34451686     0.08080
H374        H  0.92871597  0.66635154  0.33564383     0.05610
H375        H  0.91546259  0.57869782  0.23649921     0.05450
C376        C  0.63308964  0.95850016  0.29645545     0.02490
C377        C  0.64386452  0.94394079  0.33459558    -0.13660
C378        C  0.61552805  0.90799770  0.35170845    -0.00010
C379        C  0.57880157  0.88446831  0.32823355    -0.12180
C380        C  0.56692262  0.90072302  0.29018791     0.02480
C381        C  0.59285886  0.93965754  0.27611994    -0.11610
H382        H  0.67350312  0.96101781  0.35084554     0.08080
H383        H  0.55924347  0.85434252  0.33975806     0.05610
H384        H  0.58468181  0.95289675  0.24699495     0.05450
O385        O  0.88911878  0.15778004  0.06791104    -0.81530
O386        O  0.76598195  0.05109060  0.16400001    -0.66220
O387        O  0.80098168  0.12214044  0.08067670    -1.12820
C388        C  0.75785846  0.25372672  0.14495321     1.05360
O389        O  0.69499439  0.08887095  0.15245416    -0.79430
O390        O  0.68409665  0.15723235  0.09070110    -0.67010
Ni391      Ni  0.85468608  0.10475287  0.04964528     1.34870
C392        C  0.70413130  0.18592889  0.06651801     0.84100
O393        O  0.80140781  0.02402314  0.08767003    -0.79970
O394        O  0.81354549  0.05763740  0.02969797    -0.90240
C395        C  0.72184557  0.06095363  0.17358781     0.83670
O396        O  0.88272522  0.06492391  0.08716758    -0.68440
O397        O  0.71850802  0.22680099  0.14617285    -0.87730
C398        C  0.89646815  0.08467178  0.11734924     0.84500
C399        C  0.80549181  0.02152560  0.04936165     1.06070
H400        H  0.78770497  0.14548644  0.17046727     0.37870
O401        O  0.77206381  0.14278338  0.14504792    -1.10390
O402        O  0.74569707  0.20401942  0.07744279    -0.67040
Ni403      Ni  0.80289400  0.18154778  0.10992601     1.26350
O404        O  0.86078992  0.09396506  0.14027905    -0.67270
O405        O  0.79982511  0.23588835  0.14181720    -0.79560
C406        C  0.85882542  0.18660451  0.05456694     0.83880
O407        O  0.84318071  0.21699830  0.07643542    -0.66740
Ni408      Ni  0.70518650  0.15704669  0.14751592     1.27450
Ni409      Ni  0.78891664  0.08362470  0.12031838     1.26060
H410        H  0.77078782  0.11953901  0.06549168     0.38420
O411        O  0.76840368  0.49410237  0.13890096    -0.81530
O412        O  0.62302986  0.36779253  0.06125573    -0.66220
O413        O  0.71814836  0.41715347  0.12786947    -1.12820
C414        C  0.82844615  0.34297254  0.04366041     1.05360
O415        O  0.66698964  0.31087056  0.05246260    -0.79430
O416        O  0.71725612  0.30530976  0.10704045    -0.67010
Ni417      Ni  0.69792696  0.48238330  0.12914667     1.34870
C418        C  0.75177133  0.30314887  0.13058242     0.84100
O419        O  0.62239116  0.39668806  0.13030793    -0.79970
O420        O  0.62289204  0.47143287  0.12058410    -0.90240
C421        C  0.64796192  0.34693424  0.03855631     0.83670
O422        O  0.70362614  0.50312582  0.07374621    -0.68440
O423        O  0.80402735  0.31142715  0.06113642    -0.87730
C424        C  0.67605981  0.48136607  0.04939290     0.84500
C425        C  0.59832805  0.43212530  0.12353546     1.06070
H426        H  0.73791002  0.39938534  0.04411449     0.37870
O427        O  0.73135860  0.37723149  0.06481116    -1.10390
O428        O  0.78372544  0.33744546  0.13045370    -0.67040
Ni429      Ni  0.77702764  0.39948702  0.09990138     1.26350
O430        O  0.65930083  0.44160075  0.05998907    -0.67270
O431        O  0.83082480  0.38325767  0.06129903    -0.79560
C432        C  0.80034029  0.46685060  0.15548670     0.83880
O433        O  0.81646963  0.42998109  0.13869079    -0.66740
Ni434      Ni  0.73396540  0.31171580  0.05474005     1.27450
Ni435      Ni  0.67304537  0.38928270  0.09543383     1.26060
H436        H  0.71712799  0.40222813  0.15317877     0.38420
O437        O  0.52430908  0.22665788  0.91840425    -0.81530
O438        O  0.64423041  0.38711241  0.97972127    -0.66220
O439        O  0.59939211  0.28468021  0.92321314    -1.12820
C440        C  0.68356587  0.20231380  0.02493592     1.05360
O441        O  0.71015569  0.35700305  0.99368125    -0.79430
O442        O  0.71776679  0.29798872  0.94445850    -0.67010
Ni443      Ni  0.53016197  0.29522342  0.91770394     1.34870
C444        C  0.72387687  0.25995737  0.92864428     0.84100
O445        O  0.61233919  0.37950753  0.91032268    -0.79970
O446        O  0.53436349  0.36733586  0.91563368    -0.90240
C447        C  0.67069921  0.37162858  0.00548272     0.83670
O448        O  0.51029318  0.29613166  0.97315042    -0.68440
O449        O  0.71281010  0.22755887  0.00555432    -0.87730
C450        C  0.52631009  0.32781502  0.99637245     0.84500
C451        C  0.57125969  0.39680449  0.91158848     1.06070
H452        H  0.61686868  0.28105424  0.00735018     0.37870
O453        O  0.64084462  0.28677323  0.98737761    -1.10390
O454        O  0.68860254  0.22897687  0.93258564    -0.67040
Ni455      Ni  0.62247508  0.23564561  0.95961552     1.26350
O456        O  0.56551572  0.34988981  0.98599966    -0.67270
O457        O  0.64237058  0.19306756  0.00640116    -0.79560
C458        C  0.55557559  0.19561256  0.90825714     0.83880
O459        O  0.59587563  0.18820755  0.92710600    -0.66740
Ni460      Ni  0.71026142  0.29313368  0.99940519     1.27450
Ni461      Ni  0.62287401  0.33567860  0.95123819     1.26060
H462        H  0.61501428  0.28297070  0.89823499     0.38420
O463        O  0.97592366  0.24738794  0.89993235    -0.81530
O464        O  0.83635071  0.14043367  0.00027281    -0.66220
O465        O  0.89434657  0.20868437  0.92408237    -1.12820
C466        C  0.83507357  0.33298757  0.99955316     1.05360
O467        O  0.78551885  0.18708374  0.01832933    -0.79430
O468        O  0.78519471  0.21711588  0.95300196    -0.67010
Ni469      Ni  0.95977315  0.18554819  0.92140851     1.34870
C470        C  0.77716581  0.24662965  0.92771767     0.84100
O471        O  0.86788742  0.11553599  0.93737946    -0.79970
O472        O  0.94729925  0.11663033  0.94011460    -0.90240
C473        C  0.82452217  0.16881460  0.02459741     0.83670
O474        O  0.98088486  0.20830663  0.97256232    -0.68440
O475        O  0.79961563  0.31058264  0.98448926    -0.87730
C476        C  0.96337163  0.19009045  0.00318529     0.84500
C477        C  0.90629019  0.09230489  0.94063691     1.06070
H478        H  0.88337027  0.24407490  0.00858822     0.37870
O479        O  0.85993622  0.23619045  0.98815858    -1.10390
O480        O  0.81411934  0.27492268  0.92030556    -0.67040
Ni481      Ni  0.88303956  0.27052113  0.94684841     1.26350
O482        O  0.92395310  0.16564701  0.99891787    -0.67270
O483        O  0.87555956  0.32921710  0.98051144    -0.79560
C484        C  0.95297069  0.28401403  0.88757704     0.83880
O485        O  0.91390580  0.29992206  0.90331480    -0.66740
Ni486      Ni  0.79321426  0.24721152  0.00177475     1.27450
Ni487      Ni  0.86586347  0.17455365  0.96335740     1.26060
H488        H  0.87642272  0.20448845  0.89975291     0.38420
O489        O  0.44810983  0.52546054  0.02502850    -0.81530
O490        O  0.37419444  0.43185122  0.15871470    -0.66220
O491        O  0.45958466  0.48498643  0.09132031    -1.12820
C492        C  0.49503664  0.34643434  0.03114277     1.05360
O493        O  0.43183851  0.37471271  0.16681521    -0.79430
O494        O  0.51839614  0.39874548  0.13524026    -0.67010
Ni495      Ni  0.45738324  0.54753888  0.07430712     1.34870
C496        C  0.54528040  0.42116336  0.11155803     0.84100
O497        O  0.40773329  0.52918356  0.14934821    -0.79970
O498        O  0.47454572  0.56305905  0.12552555    -0.90240
C499        C  0.39889360  0.40283409  0.18017652     0.83670
O500        O  0.38825054  0.55034358  0.08018068    -0.68440
O501        O  0.50182969  0.33678410  0.06830719    -0.87730
C502        C  0.36195290  0.51993634  0.06306737     0.84500
C503        C  0.43970094  0.56477464  0.14797999     1.06070
H504        H  0.39610359  0.39073215  0.08496578     0.37870
O505        O  0.42641881  0.40432548  0.09515868    -1.10390
O506        O  0.52994679  0.42465297  0.07605704    -0.67040
Ni507      Ni  0.46118579  0.43187249  0.05542779     1.26350
O508        O  0.36221437  0.47857354  0.07917927    -0.67270
O509        O  0.46433239  0.37783524  0.02268039    -0.79560
C510        C  0.48761968  0.50366310  0.02484345     0.83880
O511        O  0.48576046  0.46317127  0.01329712    -0.66740
Ni512      Ni  0.46507874  0.35728171  0.11832280     1.27450
Ni513      Ni  0.41342843  0.46404575  0.12242107     1.26060
H514        H  0.48723675  0.48422094  0.10912742     0.38420
O515        O  0.58477110  0.63756443  0.90231647    -0.81530
O516        O  0.53076289  0.55938643  0.06111842    -0.66220
O517        O  0.59002887  0.61008033  0.97494799    -1.12820
C518        C  0.56992949  0.44597055  0.92818321     1.05360
O519        O  0.56971784  0.49713220  0.05160312    -0.79430
O520        O  0.62735433  0.46736941  0.99417499    -0.67010
Ni521      Ni  0.55108476  0.65635826  0.95059240     1.34870
C522        C  0.65516733  0.49742415  0.00929804     0.84100
O523        O  0.55292567  0.64230492  0.04641170    -0.79970
O524        O  0.51191430  0.67764856  0.99994079    -0.90240
C525        C  0.52946109  0.51817922  0.05171238     0.83670
O526        O  0.49993863  0.61337280  0.93412151    -0.68440
O527        O  0.54178065  0.44449708  0.95626865    -0.87730
C528        C  0.47285977  0.59337074  0.95876118     0.84500
C529        C  0.51868026  0.66991451  0.03751003     1.06070
H530        H  0.52823531  0.52814853  0.96551862     0.37870
O531        O  0.55617833  0.52965262  0.98308729    -1.10390
O532        O  0.65485953  0.53745196  0.99146171    -0.67040
Ni533      Ni  0.60058472  0.54864655  0.94967279     1.26350
O534        O  0.48760887  0.59255156  0.99448312    -0.67270
O535        O  0.60142736  0.48192881  0.92384751    -0.79560
C536        C  0.61590240  0.60722358  0.88937441     0.83880
O537        O  0.63907106  0.57774744  0.91131488    -0.66740
Ni538      Ni  0.56001302  0.46883025  0.00458554     1.27450
Ni539      Ni  0.55568153  0.58592796  0.01641078     1.26060
H540        H  0.62088153  0.62374082  0.98397265     0.38420
O541        O  0.32341088  0.70215856  0.00122285    -0.81530
O542        O  0.20879654  0.58537643  0.91609802    -0.66220
O543        O  0.28008218  0.62716466  0.00076768    -1.12820
C544        C  0.42015163  0.58393072  0.94762686     1.05360
O545        O  0.25110800  0.51908862  0.93039726    -0.79430
O546        O  0.31605164  0.51387527  0.99748061    -0.67010
Ni547      Ni  0.26604505  0.68169499  0.02469555     1.34870
C548        C  0.34344175  0.53605755  0.02198612     0.84100
O549        O  0.17837859  0.63545706  0.98842102    -0.79970
O550        O  0.21229824  0.64876572  0.04654797    -0.90240
C551        C  0.22086278  0.54267729  0.90797099     0.83670
O552        O  0.22984861  0.71737835  0.98712374    -0.68440
O553        O  0.39608613  0.54402241  0.94944351    -0.87730
C554        C  0.24486139  0.72064698  0.95273702     0.84500
C555        C  0.17443038  0.64589444  0.02578736     1.06070
H556        H  0.30752423  0.60688133  0.91299697     0.37870
O557        O  0.30318421  0.59415991  0.93892414    -1.10390
O558        O  0.36098456  0.57561996  0.01098063    -0.67040
Ni559      Ni  0.34249773  0.62528363  0.97353211     1.26350
O560        O  0.25228431  0.68069739  0.93522109    -0.67270
O561        O  0.39698077  0.62068774  0.94258037    -0.79560
C562        C  0.35119304  0.67817871  0.02290980     0.83880
O563        O  0.38476648  0.65818262  0.00760435    -0.66740
Ni564      Ni  0.32202633  0.53046006  0.94093936     1.27450
Ni565      Ni  0.24072164  0.61405943  0.96000997     1.26060
H566        H  0.27655146  0.60122194  0.01882495     0.38420
O567        O  0.30057851  0.68337540  0.07801379    -0.81530
O568        O  0.40204914  0.81909843  0.15773158    -0.66220
O569        O  0.37574222  0.73458457  0.07835581    -1.12820
C570        C  0.43149279  0.61565469  0.15604904     1.05360
O571        O  0.47621718  0.78528848  0.15036893    -0.79430
O572        O  0.49820089  0.71528895  0.09760566    -0.67010
Ni573      Ni  0.31763394  0.73740496  0.05079819     1.34870
C574        C  0.48399310  0.68545395  0.07194467     0.84100
O575        O  0.35121632  0.83180550  0.07729472    -0.79970
O576        O  0.34569686  0.78758629  0.02421908    -0.90240
C577        C  0.44831809  0.81493433  0.16729942     0.83670
O578        O  0.28405525  0.77687538  0.08377845    -0.68440
O579        O  0.46832268  0.64581886  0.15583121    -0.87730
C580        C  0.27265567  0.76298686  0.11645279     0.84500
C581        C  0.34098172  0.82660370  0.03919764     1.06070
H582        H  0.38968211  0.72134998  0.16956820     0.37870
O583        O  0.40579581  0.72483161  0.14484418    -1.10390
O584        O  0.44333403  0.66342612  0.07899746    -0.67040
Ni585      Ni  0.38372028  0.67878791  0.11126015     1.26350
O586        O  0.31069578  0.76089803  0.13950722    -0.67270
O587        O  0.38931421  0.62964762  0.14834509    -0.79560
C588        C  0.33117776  0.65929078  0.05991427     0.83880
O589        O  0.35681322  0.63291670  0.07903639    -0.66740
Ni590      Ni  0.47343261  0.71695750  0.15211927     1.27450
Ni591      Ni  0.37941399  0.77904604  0.11587452     1.26060
H592        H  0.40364202  0.73949341  0.06171634     0.38420
O593        O  0.31731246  0.93679597  0.91467845    -0.81530
O594        O  0.16652650  0.81159251  0.99641593    -0.66220
O595        O  0.24034881  0.89063364  0.93597364    -1.12820
C596        C  0.19439496  0.00925776  0.03521079     1.05360
O597        O  0.12497765  0.87057843  0.01098862    -0.79430
O598        O  0.12679556  0.96355471  0.99396139    -0.67010
Ni599      Ni  0.30469100  0.86973529  0.92941009     1.34870
C600        C  0.11785400  0.94773240  0.96057602     0.84100
O601        O  0.21210530  0.79626713  0.93527911    -0.79970
O602        O  0.29196657  0.79782806  0.93912971    -0.90240
C603        C  0.15213012  0.83832619  0.02115352     0.83670
O604        O  0.32550520  0.87953650  0.98417229    -0.68440
O605        O  0.19504745  0.97210992  0.05476133    -0.87730
C606        C  0.30752830  0.85274736  0.01050984     0.84500
C607        C  0.25104726  0.77284362  0.93747944     1.06070
H608        H  0.23703288  0.90878279  0.01857058     0.37870
O609        O  0.20848129  0.90753987  0.00152008    -1.10390
O610        O  0.15554262  0.94089198  0.93949303    -0.67040
Ni611      Ni  0.22410098  0.94879904  0.96362583     1.26350
O612        O  0.26518079  0.83300532  0.00308219    -0.67270
O613        O  0.20507420  0.00702876  0.99746797    -0.79560
C614        C  0.29036784  0.97305382  0.90540262     0.83880
O615        O  0.24954635  0.98366884  0.92151102    -0.66740
Ni616      Ni  0.15566300  0.92303325  0.03279606     1.27450
Ni617      Ni  0.20812470  0.85046708  0.96843091     1.26060
H618        H  0.22371934  0.89024073  0.91083933     0.38420
O619        O  0.03698017  0.02983252  0.00524123    -0.81530
O620        O  0.11914311  0.09037782  0.16374605    -0.66220
O621        O  0.04779786  0.04518279  0.08103935    -1.12820
C622        C  0.99682475  0.18447548  0.03928494     1.05360
O623        O  0.06198736  0.14709067  0.17235467    -0.79430
O624        O  0.97366984  0.12584212  0.14132122    -0.67010
Ni625      Ni  0.06998371  0.99948130  0.04488804     1.34870
C626        C  0.94973818  0.10463027  0.11491685     0.84100
O627        O  0.08753083  0.99865028  0.14166118    -0.79970
O628        O  0.10300043  0.96480262  0.08550728    -0.90240
C629        C  0.09394039  0.11728262  0.18533597     0.83670
O630        O  0.11943948  0.04428667  0.03180573    -0.68440
O631        O  0.98675763  0.18894252  0.07591617    -0.87730
C632        C  0.15715544  0.04275529  0.05229337     0.84500
C633        C  0.08936513  0.96118621  0.12073349     1.06070
H634        H  0.10269999  0.14255600  0.08946219     0.37870
O635        O  0.07341851  0.12612209  0.09796220    -1.10390
O636        O  0.96984367  0.10235286  0.08148465    -0.67040
Ni637      Ni  0.03568632  0.10478853  0.05653056     1.26350
O638        O  0.15190129  0.05122081  0.08957099    -0.67270
O639        O  0.03458388  0.16341830  0.03239022    -0.79560
C640        C  0.99647264  0.04320187  0.01675604     0.83880
O641        O  0.99226355  0.08563538  0.01598794    -0.66740
Ni642      Ni  0.02791301  0.16721209  0.12454702     1.27450
Ni643      Ni  0.08771615  0.06403665  0.11975647     1.26060
H644        H  0.02253860  0.03651264  0.09921237     0.38420
O645        O  0.99204271  0.98094128  0.06259412    -0.81530
O646        O  0.94277408  0.87729998  0.91151970    -0.66220
O647        O  0.97638524  0.96115471  0.98886136    -1.12820
C648        C  0.81906488  0.98035498  0.02520133     1.05360
O649        O  0.87623111  0.92236061  0.89881720    -0.79430
O650        O  0.88248305  0.00888680  0.92704061    -0.67010
Ni651      Ni  0.02500843  0.94762268  0.02717425     1.34870
C652        C  0.89945881  0.03894856  0.95118099     0.84100
O653        O  0.03337703  0.92306295  0.93233219    -0.79970
O654        O  0.05487425  0.90956233  0.99089607    -0.90240
C655        C  0.91282670  0.89833458  0.88794319     0.83670
O656        O  0.98069807  0.90172930  0.04383809    -0.68440
O657        O  0.81399714  0.98236048  0.98757701    -0.87730
C658        C  0.99163434  0.86344586  0.03071866     0.84500
C659        C  0.06757916  0.92427450  0.95848723     1.06070
H660        H  0.88592566  0.89003327  0.98564903     0.37870
O661        O  0.89760415  0.91928717  0.97450321    -1.10390
O662        O  0.90211080  0.02534229  0.98651080    -0.67040
Ni663      Ni  0.91302891  0.96328706  0.01281386     1.26350
O664        O  0.98495634  0.85895756  0.99265173    -0.67270
O665        O  0.85256360  0.95607325  0.03880501    -0.79560
C666        C  0.97116049  0.01518382  0.04747210     0.83880
O667        O  0.92666116  0.01134947  0.04734858    -0.66740
Ni668      Ni  0.84760989  0.95011995  0.94332355     1.27450
Ni669      Ni  0.96436953  0.91448462  0.95391899     1.26060
H670        H  0.98255883  0.98563504  0.96997469     0.38420
O671        O  0.21222632  0.81479147  0.06324675    -0.81530
O672        O  0.08241297  0.70593142  0.15583368    -0.66220
O673        O  0.12612675  0.77926519  0.07359831    -1.12820
C674        C  0.08308857  0.91111112  0.13596920     1.05360
O675        O  0.01357477  0.74969289  0.14764779    -0.79430
O676        O  0.00864554  0.81010522  0.08501371    -0.67010
Ni677      Ni  0.17901546  0.76279635  0.04288957     1.34870
C678        C  0.02666516  0.83827094  0.06005384     0.84100
O679        O  0.12881555  0.68049656  0.08053879    -0.79970
O680        O  0.13676063  0.71463774  0.02275337    -0.90240
C681        C  0.03842672  0.71747580  0.16577631     0.83670
O682        O  0.20906041  0.72407526  0.08259530    -0.68440
O683        O  0.04165270  0.88742683  0.13406400    -0.87730
C684        C  0.21951257  0.74092562  0.11551374     0.84500
C685        C  0.13717657  0.67783028  0.04261499     1.06070
H686        H  0.10741536  0.79901620  0.16352541     0.37870
O687        O  0.09249605  0.79743979  0.13777596    -1.10390
O688        O  0.06951511  0.85676881  0.06871473    -0.67040
Ni689      Ni  0.12587392  0.83627403  0.10523621     1.26350
O690        O  0.18128362  0.74863319  0.13654361    -0.67270
O691        O  0.12208293  0.88848774  0.13862659    -0.79560
C692        C  0.18469748  0.84690533  0.05343251     0.83880
O693        O  0.17025397  0.87353578  0.07831051    -0.66740
Ni694      Ni  0.02717551  0.81666136  0.14024113     1.27450
Ni695      Ni  0.11070582  0.73905775  0.11275637     1.26060
H696        H  0.09732127  0.77829990  0.05677644     0.38420
C697        C  0.55302975  0.86875941  0.22438856    -0.06420
C698        C  0.53318899  0.87618030  0.26132535    -0.00490
C699        C  0.48171273  0.86868266  0.26585623    -0.09060
C700        C  0.45309856  0.85152515  0.23370951    -0.06440
C701        C  0.47369407  0.84524390  0.19683585    -0.00500
C702        C  0.52372867  0.85786070  0.19174659    -0.08970
C703        C  0.54771399  0.86061239  0.15213353     0.61410
H704        H  0.59201910  0.87501263  0.22026931     0.12100
H705        H  0.41493455  0.84148720  0.23752331     0.12110
C706        C  0.45693866  0.87864686  0.30398911     0.61640
F707        F  0.57871563  0.89952722  0.15033361    -0.23530
F708        F  0.51339073  0.86502830  0.12209144    -0.20860
F709        F  0.57500534  0.82086525  0.14655495    -0.20530
F710        F  0.46900593  0.92352611  0.31619386    -0.20590
F711        F  0.47184594  0.84666122  0.33205576    -0.20910
F712        F  0.40625252  0.87528144  0.30027285    -0.23580
C713        C  0.64774211  0.03385314  0.26436584    -0.06420
C714        C  0.66552594  0.98946552  0.27405370    -0.00490
C715        C  0.70382405  0.97003695  0.25259108    -0.09060
C716        C  0.72174160  0.99519870  0.22056287    -0.06440
C717        C  0.70146184  0.03816305  0.20874207    -0.00500
C718        C  0.66466125  0.05873319  0.23169160    -0.08970
C719        C  0.64227976  0.10598655  0.22187765     0.61410
H720        H  0.61741214  0.04699889  0.28083062     0.12100
H721        H  0.75028578  0.98015445  0.20332329     0.12110
C722        C  0.72343550  0.92157197  0.26211072     0.61640
F723        F  0.61152078  0.12084540  0.25077907    -0.23530
F724        F  0.61463089  0.10284725  0.18773981    -0.20860
F725        F  0.67908030  0.13959379  0.21777646    -0.20530
F726        F  0.68651689  0.88809345  0.25727670    -0.20590
F727        F  0.74056069  0.92030873  0.30026466    -0.20910
F728        F  0.76177091  0.90989228  0.23832119    -0.23580
C729        C  0.81210459  0.50861797  0.26053740    -0.06420
C730        C  0.86315695  0.51028634  0.26528896    -0.00490
C731        C  0.89259221  0.48819202  0.23727130    -0.09060
C732        C  0.87071975  0.47387622  0.20195493    -0.06440
C733        C  0.82028399  0.47904292  0.19464777    -0.00500
C734        C  0.78977706  0.49274107  0.22573061    -0.08970
C735        C  0.73403863  0.49023217  0.22300386     0.61410
H736        H  0.79002953  0.52454094  0.28258371     0.12100
H737        H  0.89367708  0.46027024  0.17934691     0.12110
C738        C  0.94770242  0.48268565  0.24216501     0.61640
F739        F  0.71281943  0.49994853  0.25830719    -0.23530
F740        F  0.71908055  0.44553735  0.21264542    -0.20860
F741        F  0.71663715  0.52224918  0.19589747    -0.20530
F742        F  0.96449207  0.49508272  0.27899726    -0.20590
F743        F  0.97160907  0.51030455  0.21486483    -0.20910
F744        F  0.95953378  0.43635382  0.23626404    -0.23580
C745        C  0.00372443  0.66086838  0.26326974    -0.06420
C746        C  0.95232692  0.65832219  0.25857830    -0.00490
C747        C  0.93022815  0.67519969  0.22368971    -0.09060
C748        C  0.96034329  0.69037412  0.19349721    -0.06440
C749        C  0.01185170  0.69267026  0.19751570    -0.00500
C750        C  0.03410913  0.67860514  0.23341641    -0.08970
C751        C  0.08924573  0.68237696  0.24037030     0.61410
H752        H  0.01999097  0.64669728  0.28981032     0.12100
H753        H  0.94287353  0.70158904  0.16639617     0.12110
C754        C  0.87502658  0.67643967  0.21626873     0.61640
F755        F  0.10249973  0.66985233  0.27813784    -0.23530
F756        F  0.10517760  0.72808298  0.23406834    -0.20860
F757        F  0.11284636  0.65289676  0.21533345    -0.20530
F758        F  0.84823721  0.66742792  0.24939000    -0.20590
F759        F  0.86197678  0.64366175  0.18832180    -0.20910
F760        F  0.86231502  0.72047159  0.20260302    -0.23580
C761        C  0.31945750  0.05130875  0.88329806    -0.06420
C762        C  0.30750743  0.00481465  0.87407709    -0.00490
C763        C  0.30799240  0.99048765  0.83467772    -0.09060
C764        C  0.32642316  0.02182924  0.80632691    -0.06440
C765        C  0.34256779  0.06732273  0.81608450    -0.00500
C766        C  0.33571907  0.08331511  0.85481117    -0.08970
C767        C  0.34618331  0.13328680  0.86788336     0.61410
H768        H  0.31629945  0.06272082  0.91318040     0.12100
H769        H  0.33124218  0.00990004  0.77681906     0.12110
C770        C  0.28852584  0.94246572  0.82270008     0.61640
F771        F  0.30604687  0.14968399  0.88741836    -0.23530
F772        F  0.35497265  0.16365774  0.83708840    -0.20860
F773        F  0.38652560  0.13398925  0.89306238    -0.20530
F774        F  0.24058655  0.93673211  0.83481228    -0.20590
F775        F  0.31713568  0.90790587  0.83952938    -0.20910
F776        F  0.28876760  0.93687634  0.78269358    -0.23580
C777        C  0.52357190  0.10365046  0.83286623    -0.06420
C778        C  0.50839105  0.13356165  0.80199213    -0.00490
C779        C  0.52406922  0.18109129  0.80268436    -0.09060
C780        C  0.54225016  0.19924157  0.83800311    -0.06440
C781        C  0.54617805  0.17107312  0.87151756    -0.00500
C782        C  0.53994424  0.12209397  0.86877919    -0.08970
C783        C  0.54570010  0.09051584  0.90432958     0.61410
H784        H  0.51415459  0.06667867  0.83094150     0.12100
H785        H  0.55095200  0.23633469  0.84036923     0.12110
C786        C  0.52038045  0.21292230  0.76715558     0.61640
F787        F  0.53460093  0.04413665  0.89586770    -0.23530
F788        F  0.51441285  0.10471757  0.93307579    -0.20860
F789        F  0.59362084  0.09302496  0.91835251    -0.20530
F790        F  0.47175385  0.21940113  0.75643213    -0.20590
F791        F  0.54518104  0.19318083  0.73676397    -0.20910
F792        F  0.54152658  0.25660895  0.77408365    -0.23580
C793        C  0.20995250  0.46967843  0.86904774    -0.06420
C794        C  0.19889731  0.51763258  0.87302126    -0.00490
C795        C  0.17012223  0.53940089  0.84286826    -0.09060
C796        C  0.15204778  0.51175838  0.81149676    -0.06440
C797        C  0.16203398  0.46383204  0.80884356    -0.00500
C798        C  0.19194891  0.44251888  0.83774844    -0.08970
C799        C  0.20377132  0.39070375  0.83588917     0.61410
H800        H  0.23223149  0.45271112  0.89126775     0.12100
H801        H  0.12805855  0.52689789  0.78939353     0.12110
C802        C  0.15779352  0.59115888  0.84331616     0.61640
F803        F  0.23713407  0.37756272  0.86474957    -0.23530
F804        F  0.22384538  0.38096410  0.80022904    -0.20860
F805        F  0.16142999  0.36391367  0.84042447    -0.20530
F806        F  0.20063688  0.61794981  0.84455686    -0.20590
F807        F  0.12966874  0.60059814  0.87534790    -0.20910
F808        F  0.13123844  0.60464194  0.81039584    -0.23580
C809        C  0.02364623  0.31184613  0.79484159    -0.06420
C810        C  0.01868231  0.36038500  0.79239438    -0.00490
C811        C  0.98606384  0.38291046  0.81770596    -0.09060
C812        C  0.96485130  0.35682524  0.84810886    -0.06440
C813        C  0.97400381  0.30884707  0.85323922    -0.00500
C814        C  0.00198571  0.28530583  0.82471030    -0.08970
C815        C  0.01121056  0.23276370  0.82573301     0.61410
H816        H  0.04879997  0.29536881  0.77531387     0.12100
H817        H  0.94199357  0.37460011  0.86864193     0.12110
C818        C  0.97398653  0.43454841  0.81458608     0.61640
F819        F  0.03149734  0.21746555  0.79152140    -0.23530
F820        F  0.96745164  0.20820242  0.83053901    -0.20860
F821        F  0.04382439  0.22213172  0.85582279    -0.20530
F822        F  0.99105841  0.45502494  0.78066628    -0.20590
F823        F  0.99444896  0.45804003  0.84618499    -0.20910
F824        F  0.92352037  0.43965483  0.81480983    -0.23580
C825        C  0.46576412  0.66381139  0.72826907    -0.06420
C826        C  0.49085334  0.68462265  0.69711434    -0.00490
C827        C  0.54236138  0.68041688  0.69444450    -0.09060
C828        C  0.56797551  0.65995083  0.72549678    -0.06440
C829        C  0.54340889  0.64049164  0.75737640    -0.00500
C830        C  0.49147622  0.64051282  0.75838784    -0.08970
C831        C  0.46371350  0.61551026  0.79058375     0.61410
H832        H  0.42625153  0.66732408  0.72947147     0.12100
H833        H  0.60768706  0.65776617  0.72459024     0.12110
C834        C  0.57069133  0.69761218  0.65920609     0.61640
F835        F  0.41332873  0.61792657  0.78477703    -0.23530
F836        F  0.47546534  0.63572423  0.82605123    -0.20860
F837        F  0.47622155  0.56870840  0.79179839    -0.20530
F838        F  0.58204232  0.74478978  0.66297468    -0.20590
F839        F  0.54326956  0.69066747  0.62530974    -0.20910
F840        F  0.61408865  0.67348872  0.65568032    -0.23580
C841        C  0.70245825  0.52163663  0.75949130    -0.06420
C842        C  0.65416510  0.51064787  0.76982446    -0.00490
C843        C  0.62709239  0.47678639  0.74779914    -0.09060
C844        C  0.64675691  0.46015361  0.71314808    -0.06440
C845        C  0.69299944  0.47537843  0.70018916    -0.00500
C846        C  0.72268273  0.50461061  0.72503181    -0.08970
C847        C  0.77531327  0.51852876  0.71566668     0.61410
H848        H  0.72252285  0.54763533  0.77656666     0.12100
H849        H  0.62481328  0.43619373  0.69537848     0.12110
C850        C  0.57588785  0.45986200  0.75834873     0.61640
F851        F  0.79861073  0.54148063  0.74641096    -0.23530
F852        F  0.77601632  0.54848548  0.68378911    -0.20860
F853        F  0.80193144  0.47890127  0.70810981    -0.20530
F854        F  0.54231325  0.47609374  0.73083534    -0.20590
F855        F  0.56231920  0.47481100  0.79475102    -0.20910
F856        F  0.57424414  0.41136350  0.75857857    -0.23580
C857        C  0.91128361  0.01077127  0.73572196    -0.06420
C858        C  0.88247745  0.98372039  0.76160556    -0.00490
C859        C  0.83039690  0.98520968  0.75834996    -0.09060
C860        C  0.80957076  0.01233309  0.72829598    -0.06440
C861        C  0.83847277  0.03562107  0.70064993    -0.00500
C862        C  0.89008879  0.03536956  0.70419177    -0.08970
C863        C  0.92226840  0.05742163  0.67313176     0.61410
H864        H  0.95093853  0.00939464  0.73866349     0.12100
H865        H  0.76995564  0.01380099  0.72484986     0.12110
C866        C  0.79630261  0.95665832  0.78442634     0.61640
F867        F  0.97169297  0.04997462  0.68065492    -0.23530
F868        F  0.91502279  0.10523890  0.67140288    -0.20860
F869        F  0.91036282  0.03809625  0.63726966    -0.20530
F870        F  0.79673297  0.97542375  0.82136669    -0.20590
F871        F  0.81063332  0.91039676  0.78627282    -0.20910
F872        F  0.74814465  0.95695529  0.77065402    -0.23580
C873        C  0.03627819  0.88136410  0.74434346    -0.06420
C874        C  0.00136869  0.85713840  0.76686148    -0.00490
C875        C  0.98993984  0.80964548  0.75975304    -0.09060
C876        C  0.01385879  0.78811976  0.72959882    -0.06440
C877        C  0.04427127  0.81347512  0.70379797    -0.00500
C878        C  0.05661873  0.86100149  0.71153681    -0.08970
C879        C  0.08821688  0.89109100  0.68473077     0.61410
H880        H  0.04363592  0.91800422  0.75062548     0.12100
H881        H  0.00685882  0.75111187  0.72508235     0.12110
C882        C  0.95014636  0.78248419  0.78154741     0.61640
F883        F  0.08972415  0.93763656  0.69586764    -0.23530
F884        F  0.06920027  0.88945091  0.64708074    -0.20860
F885        F  0.13593094  0.87515418  0.68544655    -0.20530
F886        F  0.90627912  0.80628230  0.77934283    -0.20590
F887        F  0.96425079  0.77658629  0.82010009    -0.20910
F888        F  0.94151895  0.73836057  0.76612124    -0.23580
C889        C  0.54038567  0.31435315  0.33378375    -0.06420
C890        C  0.52089475  0.31379021  0.37130875    -0.00490
C891        C  0.47852695  0.33923925  0.37927988    -0.09060
C892        C  0.45412534  0.36138403  0.34824052    -0.06440
C893        C  0.47341695  0.36269553  0.31041533    -0.00500
C894        C  0.51788596  0.33945276  0.30301452    -0.08970
C895        C  0.54251794  0.34193952  0.26369631     0.61410
H896        H  0.57366252  0.29511742  0.32887978     0.12100
H897        H  0.42046465  0.37970506  0.35371490     0.12110
C898        C  0.46142263  0.34565057  0.42076473     0.61640
F899        F  0.59032025  0.32613772  0.26606669    -0.23530
F900        F  0.54418484  0.38769731  0.25003128    -0.20860
F901        F  0.51693212  0.31413433  0.23728231    -0.20530
F902        F  0.50043612  0.36092399  0.44409913    -0.20590
F903        F  0.44309373  0.30373664  0.43537928    -0.20910
F904        F  0.42504423  0.37867166  0.42276347    -0.23580
C905        C  0.35543350  0.56620607  0.33718611    -0.06420
C906        C  0.33480227  0.54059144  0.36826671    -0.00490
C907        C  0.33525291  0.49092716  0.36779460    -0.09060
C908        C  0.35126147  0.46867991  0.33456711    -0.06440
C909        C  0.37255173  0.49367577  0.30369898    -0.00500
C910        C  0.37566034  0.54315950  0.30502460    -0.08970
C911        C  0.39963583  0.57089325  0.27253330     0.61410
H912        H  0.35412885  0.60411647  0.33766389     0.12100
H913        H  0.34978741  0.43069540  0.33341723     0.12110
C914        C  0.31816760  0.46062383  0.40183334     0.61640
F915        F  0.39891696  0.61864843  0.27925960    -0.23530
F916        F  0.37485953  0.56213267  0.23775852    -0.20860
F917        F  0.44805487  0.55775093  0.26929679    -0.20530
F918        F  0.26816695  0.45183229  0.39842223    -0.20590
F919        F  0.32868143  0.48239016  0.43696281    -0.20910
F920        F  0.34164474  0.41803228  0.40247934    -0.23580
C921        C  0.00107312  0.21106859  0.35604516    -0.06420
C922        C  0.97514369  0.18061827  0.38085766    -0.00490
C923        C  0.97232498  0.13220291  0.37323380    -0.09060
C924        C  0.99643082  0.11579413  0.34048733    -0.06440
C925        C  0.02564946  0.14579923  0.31727354    -0.00500
C926        C  0.02752572  0.19451619  0.32467319    -0.08970
C927        C  0.05880854  0.22887614  0.30126459     0.61410
H928        H  0.00161587  0.24824539  0.36228779     0.12100
H929        H  0.99554694  0.07862649  0.33422298     0.12110
C930        C  0.94755698  0.09786136  0.40100454     0.61640
F931        F  0.06135935  0.27270595  0.31824763    -0.23530
F932        F  0.03862960  0.23442802  0.26433058    -0.20860
F933        F  0.10631253  0.21285771  0.29873140    -0.20530
F934        F  0.89755589  0.10551728  0.40120519    -0.20590
F935        F  0.96690460  0.10369500  0.43826030    -0.20910
F936        F  0.95461241  0.05176838  0.39045678    -0.23580
C937        C  0.11723875  0.99103256  0.32583923    -0.06420
C938        C  0.14518442  0.02212061  0.30258323    -0.00490
C939        C  0.19689623  0.02277410  0.30590901    -0.09060
C940        C  0.21859376  0.99364083  0.33387713    -0.06440
C941        C  0.19057831  0.96818991  0.36123046    -0.00500
C942        C  0.13897594  0.96499721  0.35634302    -0.08970
C943        C  0.10687397  0.93721948  0.38427168     0.61410
H944        H  0.07758605  0.99108620  0.32233873     0.12100
H945        H  0.25830964  0.99322284  0.33637176     0.12110
C946        C  0.22913949  0.05667275  0.28277092     0.61640
F947        F  0.05735049  0.94203900  0.37544446    -0.23530
F948        F  0.11510188  0.95280688  0.42191887    -0.20860
F949        F  0.11764544  0.89011175  0.38231182    -0.20530
F950        F  0.21370728  0.10219887  0.28752797    -0.20590
F951        F  0.22690498  0.04535232  0.24376226    -0.20910
F952        F  0.27794736  0.05510646  0.29479022    -0.23580
loop_ 
_geom_bond_atom_site_label_1 
_geom_bond_atom_site_label_2 
_geom_bond_distance 
_geom_bond_site_symmetry_2 
_ccdc_geom_bond_type 
C1            C2   1.396       .  A
C1            C6   1.390       .  A
C1          C925   1.474       .  S
C2            C3   1.410       .  A
C2            H7   1.079       .  S
C3            C4   1.407       .  A
C3          C629   1.475       .  S
C4            C5   1.399       .  A
C4            H8   1.081       .  S
C5            C6   1.391       .  A
C5          C938   1.470       .  S
C6            H9   1.086       .  S
C10          C11   1.393       .  A
C10          C15   1.401       .  A
C10         C893   1.482       .  S
C11          C12   1.393       .  A
C11          H16   1.086       .  S
C12          C13   1.408       .  A
C12         C909   1.478       .  S
C13          C14   1.416       .  A
C13          H17   1.083       .  S
C14          C15   1.411       .  A
C14         C499   1.486       .  S
C15          H18   1.079       .  S
C19          C20   1.396       .  A
C19          C24   1.398       .  A
C19         C874   1.454   1_655  S
C20          C21   1.388       .  A
C20          H25   1.085       .  S
C21          C22   1.394       .  A
C21         C858   1.485       .  S
C22          C23   1.419       .  A
C22          H26   1.078       .  S
C23          C24   1.393       .  A
C23         C655   1.472       .  S
C24          H27   1.081       .  S
C28          C29   1.397       .  A
C28          C33   1.384       .  A
C28         C829   1.464       .  S
C29          C30   1.411       .  A
C29          H34   1.083       .  S
C30          C31   1.423       .  A
C30         C536   1.491       .  S
C31          C32   1.413       .  A
C31          H35   1.083       .  S
C32          C33   1.388       .  A
C32         C842   1.480       .  S
C33          H36   1.086       .  S
O37         Ni43   1.936       .  S
O37          C58   1.293       .  A
O38         Ni61   1.869       .  S
O38          C47   1.212       .  A
O39         Ni43   1.920       .  S
O39         Ni61   1.834       .  S
O39         Ni55   1.951       .  S
O39          H62   0.967       .  S
C40         C118   1.561       .  S
C40          O57   1.300       .  A
C40          O49   1.262       .  A
O41         Ni60   1.829       .  S
O41          C47   1.241       .  A
O42         Ni60   1.902       .  S
O42          C44   1.228       .  A
Ni43         O46   2.080       .  S
Ni43         O48   1.946       .  S
C44          C70   1.507       .  S
C44          O54   1.302       .  A
O45         Ni61   1.871       .  S
O45          C51   1.226       .  A
O46          C51   1.298       .  A
C47          C99   1.461       .  S
O48          C50   1.264       .  A
O49         Ni60   1.910       .  S
C50         C300   1.545       .  S
C50          O56   1.284       .  A
C51         C330   1.526       .  S
H52          O53   0.965       .  S
O53         Ni61   1.936       .  S
O53         Ni55   1.805       .  S
O53         Ni60   1.911       .  S
O54         Ni55   2.061       .  S
Ni55         O59   1.881       .  S
Ni55         O57   2.056       .  S
O56         Ni61   2.034       .  S
C58         C877   1.471       .  S
C58          O59   1.284       .  A
O63         Ni69   1.935       .  S
O63          C84   1.290       .  A
O64         Ni87   1.870       .  S
O64          C73   1.212       .  A
O65         Ni69   1.924       .  S
O65         Ni87   1.842       .  S
O65         Ni81   1.964       .  S
O65          H88   0.967       .  S
C66          C92   1.561       .  S
C66          O83   1.301       .  A
C66          O75   1.263       .  A
O67         Ni86   1.832       .  S
O67          C73   1.242       .  A
O68         Ni86   1.899       .  S
O68          C70   1.228       .  A
Ni69         O72   2.082       .  S
Ni69         O74   1.948       .  S
C70          O80   1.304       .  A
O71         Ni87   1.875       .  S
O71          C77   1.230       .  A
O72          C77   1.297       .  A
C73         C125   1.464       .  S
O74          C76   1.266       .  A
O75         Ni86   1.913       .  S
C76         C144   1.535       .  S
C76          O82   1.280       .  A
C77         C174   1.534       .  S
H78          O79   0.964       .  S
O79         Ni87   1.938       .  S
O79         Ni81   1.805       .  S
O79         Ni86   1.903       .  S
O80         Ni81   2.064       .  S
Ni81         O85   1.899       .  S
Ni81         O83   2.057       .  S
O82         Ni87   2.020       .  S
C84         C826   1.458       .  S
C84          O85   1.289       .  A
O89         Ni95   1.930       .  S
O89         C110   1.290       .  A
O90        Ni113   1.870       .  S
O90          C99   1.207       .  A
O91         Ni95   1.928       .  S
O91        Ni113   1.835       .  S
O91        Ni107   1.964       .  S
O91         H114   0.967       .  S
C92         O109   1.303       .  A
C92         O101   1.261       .  A
O93        Ni112   1.831       .  S
O93          C99   1.244       .  A
O94        Ni112   1.901       .  S
O94          C96   1.230       .  A
Ni95         O98   2.083       .  S
Ni95        O100   1.953       .  S
C96         C122   1.517       .  S
C96         O106   1.307       .  A
O97        Ni113   1.868       .  S
O97         C103   1.229       .  A
O98         C103   1.295       .  A
O100        C102   1.267       .  A
O101       Ni112   1.910       .  S
C102        C326   1.535       .  S
C102        O108   1.281       .  A
C103        C304   1.531       .  S
H104        O105   0.964       .  S
O105       Ni113   1.938       .  S
O105       Ni107   1.813       .  S
O105       Ni112   1.902       .  S
O106       Ni107   2.074       .  S
Ni107       O111   1.923       .  S
Ni107       O109   2.060       .  S
O108       Ni113   2.024       .  S
C110        C906   1.473       .  S
C110        O111   1.295       .  A
O115       Ni121   1.938       .  S
O115        C136   1.294       .  A
O116       Ni139   1.867       .  S
O116        C125   1.210       .  A
O117       Ni121   1.928       .  S
O117       Ni139   1.833       .  S
O117       Ni133   1.958       .  S
O117        H140   0.967       .  S
C118        O135   1.302       .  A
C118        O127   1.261       .  A
O119       Ni138   1.827       .  S
O119        C125   1.243       .  A
O120       Ni138   1.902       .  S
O120        C122   1.229       .  A
Ni121       O124   2.085       .  S
Ni121       O126   1.947       .  S
C122        O132   1.305       .  A
O123       Ni139   1.864       .  S
O123        C129   1.229       .  A
O124        C129   1.296       .  A
O126        C128   1.265       .  A
O127       Ni138   1.908       .  S
C128        C170   1.533   1_565  S
C128        O134   1.280       .  A
C129        C148   1.528       .  S
H130        O131   0.964       .  S
O131       Ni139   1.940       .  S
O131       Ni133   1.810       .  S
O131       Ni138   1.908       .  S
O132       Ni133   2.072       .  S
Ni133       O137   1.900       .  S
Ni133       O135   2.058       .  S
O134       Ni139   2.023       .  S
C136        C941   1.475       .  S
C136        O137   1.290       .  A
O141       Ni147   1.846   1_565  S
O141        C162   1.243       .  A
O142       Ni165   1.919       .  S
O142        C151   1.301       .  A
O143       Ni147   1.916   1_565  S
O143       Ni165   1.800       .  S
O143       Ni159   1.915       .  S
O143        H166   0.964       .  S
C144        O161   1.227       .  A
C144        O153   1.298       .  A
O145       Ni164   1.944       .  S
O145        C151   1.291       .  A
O146       Ni164   1.937       .  S
O146        C148   1.258       .  A
Ni147       O150   1.904       .  S
Ni147       O152   1.878   1_545  S
C148        O158   1.280       .  A
O149       Ni165   2.035   1_545  S
O149        C155   1.293       .  A
O150        C155   1.260       .  A
C151        C378   1.494       .  S
O152        C154   1.227       .  A
O153       Ni164   2.092       .  S
C154        C252   1.549       .  S
C154        O160   1.323       .  A
C155        C196   1.551       .  S
H156        O157   0.966       .  S
O157       Ni165   1.962       .  S
O157       Ni159   1.855       .  S
O157       Ni164   1.940       .  S
O158       Ni159   2.027       .  S
Ni159       O163   1.877       .  S
Ni159       O161   1.865       .  S
O160       Ni165   2.122       .  S
C162        C188   1.477       .  S
C162        O163   1.217       .  A
O167       Ni173   1.816       .  S
O167        C188   1.242   1_545  A
O168       Ni191   1.897       .  S
O168        C177   1.292       .  A
O169       Ni173   1.890       .  S
O169       Ni191   1.799       .  S
O169       Ni185   1.924       .  S
O169        H192   0.963       .  S
C170        O187   1.234       .  A
C170        O179   1.302   1_545  A
O171       Ni190   1.962       .  S
O171        C177   1.294       .  A
O172       Ni190   1.955   1_565  S
O172        C174   1.263       .  A
Ni173       O176   1.874       .  S
Ni173       O178   1.844       .  S
C174        O184   1.273       .  A
O175       Ni191   2.045       .  S
O175        C181   1.281       .  A
O176        C181   1.256       .  A
C177        C360   1.490       .  S
O178        C180   1.232       .  A
O179       Ni190   2.089   1_565  S
C180        C200   1.585       .  S
C180        O186   1.339       .  A
C181        C248   1.556       .  S
H182        O183   0.966       .  S
O183       Ni191   1.962       .  S
O183       Ni185   1.861       .  S
O183       Ni190   1.943       .  S
O184       Ni185   2.008   1_565  S
Ni185       O189   1.871   1_545  S
Ni185       O187   1.865       .  S
O186       Ni191   2.167       .  S
C188        O189   1.218       .  A
O193       Ni199   1.870       .  S
O193        C214   1.272       .  A
O194       Ni217   1.888       .  S
O194        C203   1.289       .  A
O195       Ni199   1.865       .  S
O195       Ni217   1.798       .  S
O195       Ni211   1.816       .  S
O195        H218   0.968       .  S
C196        O213   1.287       .  A
C196        O205   1.287       .  A
O197       Ni216   1.952       .  S
O197        C203   1.299       .  A
O198       Ni216   2.042       .  S
O198        C200   1.295       .  A
Ni199       O202   1.918       .  S
Ni199       O204   1.926       .  S
C200        O210   1.260       .  A
O201       Ni217   2.034       .  S
O201        C207   1.315       .  A
O202        C207   1.259       .  A
C203        C890   1.460       .  S
O204        C206   1.249       .  A
O205       Ni216   1.998       .  S
C206        C284   1.548       .  S
C206        O212   1.300       .  A
C207        C233   1.545       .  S
H208        O209   0.965       .  S
O209       Ni217   1.966       .  S
O209       Ni211   1.851       .  S
O209       Ni216   1.889       .  S
O210       Ni211   1.948       .  S
Ni211       O215   1.758       .  S
Ni211       O213   1.975       .  S
O212       Ni217   2.066       .  S
C214        C266   1.282       .  S
C214        O215   1.204       .  A
O219       Ni225   1.838       .  S
O219        C240   1.248       .  A
O220       Ni243   1.908       .  S
O220        C229   1.290       .  A
O221       Ni225   1.921       .  S
O221       Ni243   1.843       .  S
O221       Ni237   1.946       .  S
O221        H244   0.964       .  S
C222        C337   1.481       .  S
C222        O239   1.233       .  A
C222        O231   1.297       .  A
O223       Ni242   1.954       .  S
O223        C229   1.290       .  A
O224       Ni242   2.019       .  S
O224        C226   1.277       .  A
Ni225       O228   1.927       .  S
Ni225       O230   1.900       .  S
C226        C310   1.595       .  S
C226        O236   1.286       .  A
O227       Ni243   2.016       .  S
O227        C233   1.285       .  A
O228        C233   1.272       .  A
C229        C845   1.491       .  S
O230        C232   1.231       .  A
O231       Ni242   2.034       .  S
C232        C258   1.557       .  S
C232        O238   1.326       .  A
H234        O235   0.967       .  S
O235       Ni243   1.945       .  S
O235       Ni237   1.824       .  S
O235       Ni242   1.956       .  S
O236       Ni237   2.012       .  S
Ni237       O241   1.870       .  S
Ni237       O239   1.865       .  S
O238       Ni243   2.128       .  S
C240        C292   1.477       .  S
C240        O241   1.219       .  A
O245       Ni251   1.899       .  S
O245        C266   1.265       .  A
O246       Ni269   1.911       .  S
O246        C255   1.301       .  A
O247       Ni251   1.734       .  S
O247       Ni269   1.828       .  S
O247       Ni263   1.866       .  S
O247        H270   0.968       .  S
C248        O265   1.240       .  A
C248        O257   1.285       .  A
O249       Ni268   1.945       .  S
O249        C255   1.300       .  A
O250       Ni268   2.080   1_565  S
O250        C252   1.313       .  A
Ni251       O254   1.947       .  S
Ni251       O256   1.805       .  S
C252        O262   1.251   1_565  A
O253       Ni269   1.963       .  S
O253        C259   1.295       .  A
O254        C259   1.287       .  A
C255        C861   1.464       .  S
O256        C258   1.249       .  A
O257       Ni268   2.068       .  S
C258        O264   1.376       .  A
C259        C285   1.495       .  S
H260        O261   0.966       .  S
O261       Ni269   1.944       .  S
O261       Ni263   1.858       .  S
O261       Ni268   1.846       .  S
O262       Ni263   1.924       .  S
Ni263       O267   1.730       .  S
Ni263       O265   1.892       .  S
O264       Ni269   2.247       .  S
C266        O267   1.272       .  A
O271       Ni277   1.840       .  S
O271        C292   1.237       .  A
O272       Ni295   1.890       .  S
O272        C281   1.280       .  A
O273       Ni277   1.934       .  S
O273       Ni295   1.837       .  S
O273       Ni289   1.910       .  S
O273        H296   0.967       .  S
C274        C311   1.482       .  S
C274        O291   1.231       .  A
C274        O283   1.306       .  A
O275       Ni294   1.938       .  S
O275        C281   1.283       .  A
O276       Ni294   2.007   1_455  S
O276        C278   1.273   1_455  A
Ni277       O280   1.885       .  S
Ni277       O282   1.893       .  S
C278        C336   1.592   1_655  S
C278        O288   1.290       .  A
O279       Ni295   2.003       .  S
O279        C285   1.282       .  A
O280        C285   1.252       .  A
C281        C922   1.460       .  S
O282        C284   1.232       .  A
O283       Ni294   2.032       .  S
C284        O290   1.311       .  A
H286        O287   0.967       .  S
O287       Ni295   1.947       .  S
O287       Ni289   1.854       .  S
O287       Ni294   1.930       .  S
O288       Ni289   2.040       .  S
Ni289       O293   1.870       .  S
Ni289       O291   1.871       .  S
O290       Ni295   2.103       .  S
C292        O293   1.222       .  A
O297       Ni303   1.846       .  S
O297        C318   1.272   1_655  A
O298       Ni321   1.913       .  S
O298        C307   1.303       .  A
O299       Ni303   1.816       .  S
O299       Ni321   1.756       .  S
O299       Ni315   1.962       .  S
O299        H322   0.962       .  S
C300        O317   1.238   1_455  A
C300        O309   1.304       .  A
O301       Ni320   1.953       .  S
O301        C307   1.298       .  A
O302       Ni320   1.938   1_455  S
O302        C304   1.261       .  A
Ni303       O306   1.852       .  S
Ni303       O308   1.867       .  S
C304        O314   1.286       .  A
O305       Ni321   2.054       .  S
O305        C311   1.319       .  A
O306        C311   1.241       .  A
C307        C369   1.497       .  S
O308        C310   1.244       .  A
O309       Ni320   2.096   1_455  S
C310        O316   1.322       .  A
H312        O313   0.966       .  S
O313       Ni321   1.973       .  S
O313       Ni315   1.831       .  S
O313       Ni320   1.906       .  S
O314       Ni315   2.040   1_455  S
Ni315       O319   1.875   1_655  S
Ni315       O317   1.872       .  S
O316       Ni321   2.130       .  S
C318        C344   1.493       .  S
C318        O319   1.208       .  A
O323       Ni329   1.829   1_455  S
O323        C344   1.230       .  A
O324       Ni347   1.901       .  S
O324        C333   1.295       .  A
O325       Ni329   1.832   1_455  S
O325       Ni347   1.794       .  S
O325       Ni341   1.916       .  S
O325        H348   0.965       .  S
C326        O343   1.228       .  A
C326        O335   1.305       .  A
O327       Ni346   1.961       .  S
O327        C333   1.294       .  A
O328       Ni346   1.973       .  S
O328        C330   1.265       .  A
Ni329       O332   1.899       .  S
Ni329       O334   1.842   1_655  S
C330        O340   1.260       .  A
O331       Ni347   1.955   1_655  S
O331        C337   1.287       .  A
O332        C337   1.277       .  A
C333        C351   1.502       .  S
O334        C336   1.213       .  A
O335       Ni346   2.101       .  S
C336        O342   1.326       .  A
H338        O339   0.966       .  S
O339       Ni347   1.967       .  S
O339       Ni341   1.864       .  S
O339       Ni346   1.956       .  S
O340       Ni341   1.976       .  S
Ni341       O345   1.907       .  S
Ni341       O343   1.857       .  S
O342       Ni347   2.168       .  S
C344        O345   1.209       .  A
C349        C350   1.409       .  A
C349        C354   1.387       .  A
C349        C797   1.486       .  S
C350        C351   1.426       .  A
C350        H355   1.083       .  S
C351        C352   1.413       .  A
C352        C353   1.411       .  A
C352        H356   1.083       .  S
C353        C354   1.394       .  A
C353        C810   1.479       .  S
C354        H357   1.085       .  S
C358        C359   1.409       .  A
C358        C363   1.389       .  A
C358        C765   1.492       .  S
C359        C360   1.420       .  A
C359        H364   1.083       .  S
C360        C361   1.413       .  A
C361        C362   1.405       .  A
C361        H365   1.080       .  S
C362        C363   1.397       .  A
C362        C778   1.489       .  S
C363        H366   1.082       .  S
C367        C368   1.415       .  A
C367        C372   1.391       .  A
C367        C730   1.479       .  S
C368        C369   1.417       .  A
C368        H373   1.083       .  S
C369        C370   1.425       .  A
C370        C371   1.399       .  A
C370        H374   1.083       .  S
C371        C372   1.381       .  A
C371        C746   1.477       .  S
C372        H375   1.085       .  S
C376        C377   1.397       .  A
C376        C381   1.390       .  A
C376        C714   1.462       .  S
C377        C378   1.404       .  A
C377        H382   1.083       .  S
C378        C379   1.434       .  A
C379        C380   1.415       .  A
C379        H383   1.079       .  S
C380        C381   1.394       .  A
C380        C698   1.507       .  S
C381        H384   1.086       .  S
O385       Ni391   1.873       .  S
O385        C406   1.252       .  A
O386       Ni409   1.869       .  S
O386        C395   1.288       .  A
O387       Ni391   1.901       .  S
O387       Ni409   1.773       .  S
O387       Ni403   1.977       .  S
O387        H410   0.967       .  S
C388        C418   1.500       .  S
C388        O405   1.265       .  A
C388        O397   1.308       .  A
O389       Ni408   1.966       .  S
O389        C395   1.297       .  A
O390       Ni408   2.023       .  S
O390        C392   1.283       .  A
Ni391       O394   1.862       .  S
Ni391       O396   1.870       .  S
C392        C440   1.592       .  S
C392        O402   1.286       .  A
O393       Ni409   2.082       .  S
O393        C399   1.325       .  A
O394        C399   1.245       .  A
C395        C717   1.479       .  S
O396        C398   1.233       .  A
O397       Ni408   2.017       .  S
C398        C626   1.552       .  S
C398        O404   1.294       .  A
C399        C648   1.500   1_545  S
H400        O401   0.967       .  S
O401       Ni409   1.961       .  S
O401       Ni403   1.834       .  S
O401       Ni408   1.875       .  S
O402       Ni403   2.008       .  S
Ni403       O407   1.881       .  S
Ni403       O405   1.910       .  S
O404       Ni409   2.077       .  S
C406        C473   1.464       .  S
C406        O407   1.238       .  A
O411       Ni417   1.964       .  S
O411        C432   1.296       .  A
O412       Ni435   1.879       .  S
O412        C421   1.210       .  A
O413       Ni417   1.950       .  S
O413       Ni435   1.819       .  S
O413       Ni429   1.960       .  S
O413        H436   0.965       .  S
C414        C466   1.558   1_554  S
C414        O431   1.304       .  A
C414        O423   1.264       .  A
O415       Ni434   1.823       .  S
O415        C421   1.246       .  A
O416       Ni434   1.868       .  S
O416        C418   1.229       .  A
Ni417       O420   2.076       .  S
Ni417       O422   1.995       .  S
C418        O428   1.298       .  A
O419       Ni435   1.860       .  S
O419        C425   1.232       .  A
O420        C425   1.300       .  A
C421        C447   1.472       .  S
O422        C424   1.272       .  A
O423       Ni434   1.915       .  S
C424        C522   1.548       .  S
C424        O430   1.268       .  A
C425        C496   1.522       .  S
H426        O427   0.964       .  S
O427       Ni435   1.958       .  S
O427       Ni429   1.824       .  S
O427       Ni434   1.907       .  S
O428       Ni429   2.058       .  S
Ni429       O433   1.902       .  S
Ni429       O431   2.055       .  S
O430       Ni435   1.953       .  S
C432        C733   1.482       .  S
C432        O433   1.292       .  A
O437       Ni443   1.960       .  S
O437        C458   1.293       .  A
O438       Ni461   1.850       .  S
O438        C447   1.215   1_556  A
O439       Ni443   1.918       .  S
O439       Ni461   1.850       .  S
O439       Ni455   1.970       .  S
O439        H462   0.967       .  S
C440        O457   1.303       .  A
C440        O449   1.260       .  A
O441       Ni460   1.831       .  S
O441        C447   1.236   1_556  A
O442       Ni460   1.905       .  S
O442        C444   1.233       .  A
Ni443       O446   2.059       .  S
Ni443       O448   1.990       .  S
C444        C470   1.506       .  S
C444        O454   1.302       .  A
O445       Ni461   1.893       .  S
O445        C451   1.231       .  A
O446        C451   1.307       .  A
O448        C450   1.276       .  A
O449       Ni460   1.883   1_554  S
C450        C492   1.581   1_556  S
C450        O456   1.285       .  A
C451        C518   1.520       .  S
H452        O453   0.967   1_554  S
O453       Ni461   1.922       .  S
O453       Ni455   1.808       .  S
O453       Ni460   1.932       .  S
O454       Ni455   2.053       .  S
Ni455       O459   1.888       .  S
Ni455       O457   2.074   1_556  S
O456       Ni461   2.032       .  S
C458        C781   1.464       .  S
C458        O459   1.282       .  A
O463       Ni469   1.952       .  S
O463        C484   1.290       .  A
O464       Ni487   1.786   1_554  S
O464        C473   1.220       .  A
O465       Ni469   1.914       .  S
O465       Ni487   1.833       .  S
O465       Ni481   1.967       .  S
O465        H488   0.966       .  S
C466        O483   1.299       .  A
C466        O475   1.254       .  A
O467       Ni486   1.812       .  S
O467        C473   1.205       .  A
O468       Ni486   1.896   1_556  S
O468        C470   1.223       .  A
Ni469       O472   2.087       .  S
Ni469       O474   1.951       .  S
C470        O480   1.306       .  A
O471       Ni487   1.915       .  S
O471        C477   1.250       .  A
O472        C477   1.305       .  A
O474        C476   1.266   1_556  A
O475       Ni486   1.904   1_556  S
C476        C622   1.532       .  S
C476        O482   1.276   1_554  A
C477        C652   1.570       .  S
H478        O479   0.964   1_554  S
O479       Ni487   1.971       .  S
O479       Ni481   1.832       .  S
O479       Ni486   1.916   1_556  S
O480       Ni481   2.075       .  S
Ni481       O485   1.909       .  S
Ni481       O483   2.059       .  S
O482       Ni487   1.997       .  S
C484        C813   1.489       .  S
C484        O485   1.293       .  A
O489       Ni495   1.822       .  S
O489        C510   1.251       .  A
O490       Ni513   1.880       .  S
O490        C499   1.292       .  A
O491       Ni495   1.874       .  S
O491       Ni513   1.758       .  S
O491       Ni507   1.964       .  S
O491        H514   0.961       .  S
C492        O509   1.263       .  A
C492        O501   1.313       .  A
O493       Ni512   1.982       .  S
O493        C499   1.306       .  A
O494       Ni512   1.940       .  S
O494        C496   1.266       .  A
Ni495       O498   1.866       .  S
Ni495       O500   1.899       .  S
C496        O506   1.284       .  A
O497       Ni513   2.093       .  S
O497        C503   1.327       .  A
O498        C503   1.236       .  A
O500        C502   1.258       .  A
O501       Ni512   2.097       .  S
C502        C548   1.557       .  S
C502        O508   1.299       .  A
C503        C570   1.501       .  S
H504        O505   0.966       .  S
O505       Ni513   1.992       .  S
O505       Ni507   1.838       .  S
O505       Ni512   1.880       .  S
O506       Ni507   2.001       .  S
Ni507       O511   1.825       .  S
Ni507       O509   1.920       .  S
O508       Ni513   2.061       .  S
C510        C525   1.507       .  S
C510        O511   1.225       .  A
O515       Ni521   1.992       .  S
O515        C536   1.308       .  A
O516       Ni539   1.842       .  S
O516        C525   1.222       .  A
O517       Ni521   1.886       .  S
O517       Ni539   1.840   1_556  S
O517       Ni533   1.990       .  S
O517        H540   0.966       .  S
C518        O535   1.335       .  A
C518        O527   1.243       .  A
O519       Ni538   1.824       .  S
O519        C525   1.258       .  A
O520       Ni538   1.875   1_556  S
O520        C522   1.244   1_556  A
Ni521       O524   2.118       .  S
Ni521       O526   1.920       .  S
C522        O532   1.291   1_554  A
O523       Ni539   1.921       .  S
O523        C529   1.262       .  A
O524        C529   1.317   1_556  A
O526        C528   1.259       .  A
O527       Ni538   1.860   1_556  S
C528        C544   1.498       .  S
C528        O534   1.283       .  A
C529        C574   1.598       .  S
H530        O531   0.962       .  S
O531       Ni539   1.980   1_556  S
O531       Ni533   1.758       .  S
O531       Ni538   1.883   1_556  S
O532       Ni533   2.066       .  S
Ni533       O537   1.878       .  S
Ni533       O535   2.108       .  S
O534       Ni539   1.997   1_556  S
C536        O537   1.288       .  A
O541       Ni547   1.854       .  S
O541        C562   1.257       .  A
O542       Ni565   1.909       .  S
O542        C551   1.301       .  A
O543       Ni547   1.816       .  S
O543       Ni565   1.784   1_554  S
O543       Ni559   1.957   1_554  S
O543        H566   0.966       .  S
C544        O561   1.242       .  A
C544        O553   1.305       .  A
O545       Ni564   1.979       .  S
O545        C551   1.307       .  A
O546       Ni564   2.003       .  S
O546        C548   1.278   1_556  A
Ni547       O550   1.889       .  S
Ni547       O552   1.905   1_554  S
C548        O558   1.275       .  A
O549       Ni565   2.077       .  S
O549        C555   1.327   1_556  A
O550        C555   1.244       .  A
C551        C794   1.510       .  S
O552        C554   1.259       .  A
O553       Ni564   2.062       .  S
C554        C607   1.581       .  S
C554        O560   1.314       .  A
C555        C685   1.502       .  S
H556        O557   0.967       .  S
O557       Ni565   1.956       .  S
O557       Ni559   1.812       .  S
O557       Ni564   1.897       .  S
O558       Ni559   1.969   1_554  S
Ni559       O563   1.872   1_556  S
Ni559       O561   1.848       .  S
O560       Ni565   2.097       .  S
C562        C588   1.485       .  S
C562        O563   1.216       .  A
O567       Ni573   1.852       .  S
O567        C588   1.265       .  A
O568       Ni591   1.929       .  S
O568        C577   1.302       .  A
O569       Ni573   1.830       .  S
O569       Ni591   1.816       .  S
O569       Ni585   1.956       .  S
O569        H592   0.967       .  S
C570        O587   1.244       .  A
C570        O579   1.310       .  A
O571       Ni590   1.950       .  S
O571        C577   1.295       .  A
O572       Ni590   2.003       .  S
O572        C574   1.281       .  A
Ni573       O576   1.852       .  S
Ni573       O578   1.867       .  S
C574        O584   1.289       .  A
O575       Ni591   2.138       .  S
O575        C581   1.341       .  A
O576        C581   1.240       .  A
C577        C701   1.491       .  S
O578        C580   1.230       .  A
O579       Ni590   2.035       .  S
C580        C684   1.567       .  S
C580        O586   1.293       .  A
C581        C606   1.526       .  S
H582        O583   0.967       .  S
O583       Ni591   1.969       .  S
O583       Ni585   1.841       .  S
O583       Ni590   1.870       .  S
O584       Ni585   2.038       .  S
Ni585       O589   1.854       .  S
Ni585       O587   1.891       .  S
O586       Ni591   2.108       .  S
C588        O589   1.214       .  A
O593       Ni599   2.000       .  S
O593        C614   1.311       .  A
O594       Ni617   1.848       .  S
O594        C603   1.221   1_556  A
O595       Ni599   1.878       .  S
O595       Ni617   1.818       .  S
O595       Ni611   1.980       .  S
O595        H618   0.967       .  S
C596        C632   1.533       .  S
C596        O613   1.336   1_554  A
C596        O605   1.249   1_545  A
O597       Ni616   1.858       .  S
O597        C603   1.233       .  A
O598       Ni616   1.922   1_556  S
O598        C600   1.254       .  A
Ni599       O602   2.099       .  S
Ni599       O604   1.974       .  S
C600        C659   1.514       .  S
C600        O610   1.286       .  A
O601       Ni617   1.934       .  S
O601        C607   1.263       .  A
O602        C607   1.313       .  A
C603        C692   1.426       .  S
O604        C606   1.278   1_556  A
O605       Ni616   1.901       .  S
C606        O612   1.296       .  A
H608        O609   0.964       .  S
O609       Ni617   1.994   1_554  S
O609       Ni611   1.799   1_554  S
O609       Ni616   1.872       .  S
O610       Ni611   2.037       .  S
Ni611       O615   1.884       .  S
Ni611       O613   2.113   1_565  S
O612       Ni617   2.004   1_554  S
C614        C762   1.477   1_565  S
C614        O615   1.292       .  A
O619       Ni625   1.835   1_545  S
O619        C640   1.245   1_455  A
O620       Ni643   1.878       .  S
O620        C629   1.287       .  A
O621       Ni625   1.921   1_545  S
O621       Ni643   1.782       .  S
O621       Ni637   1.921       .  S
O621        H644   0.965       .  S
C622        O639   1.227   1_655  A
C622        O631   1.300       .  A
O623       Ni642   1.956       .  S
O623        C629   1.296       .  A
O624       Ni642   1.966   1_655  S
O624        C626   1.259       .  A
Ni625       O628   1.920       .  S
Ni625       O630   1.898   1_565  S
C626        O636   1.284       .  A
O627       Ni643   2.005   1_565  S
O627        C633   1.296       .  A
O628        C633   1.275       .  A
O630        C632   1.234       .  A
O631       Ni642   2.088   1_655  S
C632        O638   1.316       .  A
C633        C674   1.525       .  S
H634        O635   0.966       .  S
O635       Ni643   1.958       .  S
O635       Ni637   1.840       .  S
O635       Ni642   1.963       .  S
O636       Ni637   2.001   1_655  S
Ni637       O641   1.887   1_455  S
Ni637       O639   1.860       .  S
O638       Ni643   2.088       .  S
C640        C666   1.490       .  S
C640        O641   1.218       .  A
O645       Ni651   1.811   1_655  S
O645        C666   1.243   1_565  A
O646       Ni669   1.888       .  S
O646        C655   1.289       .  A
O647       Ni651   1.890   1_656  S
O647       Ni669   1.822       .  S
O647       Ni663   1.927   1_556  S
O647        H670   0.964       .  S
C648        O665   1.236       .  A
C648        O657   1.297   1_554  A
O649       Ni668   1.913       .  S
O649        C655   1.282       .  A
O650       Ni668   1.993   1_545  S
O650        C652   1.273       .  A
Ni651       O654   1.867   1_554  S
Ni651       O656   1.859   1_455  S
C652        O662   1.271       .  A
O653       Ni669   2.043   1_455  S
O653        C659   1.281       .  A
O654        C659   1.239       .  A
O656        C658   1.229       .  A
O657       Ni668   2.025       .  S
C658        C678   1.553   1_655  S
C658        O664   1.323   1_554  A
H660        O661   0.966       .  S
O661       Ni669   1.970       .  S
O661       Ni663   1.864   1_556  S
O661       Ni668   1.933       .  S
O662       Ni663   2.004   1_546  S
Ni663       O667   1.849   1_565  S
Ni663       O665   1.895       .  S
O664       Ni669   2.134       .  S
C666        O667   1.214       .  A
O671       Ni677   1.859       .  S
O671        C692   1.234       .  A
O672       Ni695   1.915       .  S
O672        C681   1.300       .  A
O673       Ni677   1.870       .  S
O673       Ni695   1.810       .  S
O673       Ni689   1.964       .  S
O673        H696   0.965       .  S
C674        O691   1.253       .  A
C674        O683   1.306       .  A
O675       Ni694   1.955       .  S
O675        C681   1.297       .  A
O676       Ni694   1.962       .  S
O676        C678   1.269       .  A
Ni677       O680   1.903       .  S
Ni677       O682   1.925       .  S
C678        O688   1.302       .  A
O679       Ni695   2.083       .  S
O679        C685   1.329       .  A
O680        C685   1.247       .  A
C681        C749   1.487       .  S
O682        C684   1.258       .  A
O683       Ni694   2.060       .  S
C684        O690   1.301       .  A
H686        O687   0.967       .  S
O687       Ni695   1.957       .  S
O687       Ni689   1.812       .  S
O687       Ni694   1.873       .  S
O688       Ni689   2.051       .  S
Ni689       O693   1.851       .  S
Ni689       O691   1.893       .  S
O690       Ni695   2.087       .  S
C692        O693   1.223       .  A
C697        C698   1.407       .  A
C697        C702   1.397       .  A
C697        H704   1.085       .  S
C698        C699   1.425       .  A
C699        C700   1.424       .  A
C699        C706   1.516       .  S
C700        C701   1.409       .  A
C700        H705   1.083       .  S
C701        C702   1.416       .  A
C702        C703   1.521       .  S
C703        F707   1.385       .  S
C703        F708   1.384       .  S
C703        F709   1.383       .  S
C706        F710   1.383       .  S
C706        F711   1.381       .  S
C706        F712   1.385       .  S
C713        C714   1.398   1_545  A
C713        C718   1.403       .  A
C713        H720   1.084       .  S
C714        C715   1.412       .  A
C715        C716   1.399       .  A
C715        C722   1.521       .  S
C716        C717   1.406   1_565  A
C716        H721   1.083       .  S
C717        C718   1.424       .  A
C718        C719   1.521       .  S
C719        F723   1.385       .  S
C719        F724   1.383       .  S
C719        F725   1.383       .  S
C722        F726   1.383       .  S
C722        F727   1.382       .  S
C722        F728   1.384       .  S
C729        C730   1.396       .  A
C729        C734   1.405       .  A
C729        H736   1.083       .  S
C730        C731   1.422       .  A
C731        C732   1.402       .  A
C731        C738   1.517       .  S
C732        C733   1.401       .  A
C732        H737   1.085       .  S
C733        C734   1.426       .  A
C734        C735   1.519       .  S
C735        F739   1.385       .  S
C735        F740   1.380       .  S
C735        F741   1.381       .  S
C738        F742   1.383       .  S
C738        F743   1.384       .  S
C738        F744   1.383       .  S
C745        C746   1.406   1_455  A
C745        C750   1.414       .  A
C745        H752   1.083       .  S
C746        C747   1.414       .  A
C747        C748   1.395       .  A
C747        C754   1.520       .  S
C748        C749   1.406   1_655  A
C748        H753   1.085       .  S
C749        C750   1.420       .  A
C750        C751   1.517       .  S
C751        F755   1.385       .  S
C751        F756   1.384       .  S
C751        F757   1.383       .  S
C754        F758   1.383       .  S
C754        F759   1.383       .  S
C754        F760   1.384       .  S
C761        C762   1.398       .  A
C761        C766   1.405       .  A
C761        H768   1.085       .  S
C762        C763   1.417   1_545  A
C763        C764   1.409   1_565  A
C763        C770   1.518       .  S
C764        C765   1.405       .  A
C764        H769   1.083       .  S
C765        C766   1.426       .  A
C766        C767   1.519       .  S
C767        F771   1.383       .  S
C767        F772   1.383       .  S
C767        F773   1.384       .  S
C770        F774   1.384       .  S
C770        F775   1.382       .  S
C770        F776   1.385       .  S
C777        C778   1.414       .  A
C777        C782   1.407       .  A
C777        H784   1.083       .  S
C778        C779   1.415       .  A
C779        C780   1.401       .  A
C779        C786   1.517       .  S
C780        C781   1.401       .  A
C780        H785   1.084       .  S
C781        C782   1.408       .  A
C782        C783   1.518       .  S
C783        F787   1.384       .  S
C783        F788   1.384       .  S
C783        F789   1.382       .  S
C786        F790   1.382       .  S
C786        F791   1.383       .  S
C786        F792   1.385       .  S
C793        C794   1.414       .  A
C793        C798   1.406       .  A
C793        H800   1.081       .  S
C794        C795   1.430       .  A
C795        C796   1.416       .  A
C795        C802   1.520       .  S
C796        C797   1.403       .  A
C796        H801   1.083       .  S
C797        C798   1.411       .  A
C798        C799   1.520       .  S
C799        F803   1.384       .  S
C799        F804   1.383       .  S
C799        F805   1.383       .  S
C802        F806   1.384       .  S
C802        F807   1.383       .  S
C802        F808   1.385       .  S
C809        C810   1.395       .  A
C809        C814   1.402       .  A
C809        H816   1.083       .  S
C810        C811   1.420   1_455  A
C811        C812   1.404       .  A
C811        C818   1.517       .  S
C812        C813   1.404       .  A
C812        H817   1.084       .  S
C813        C814   1.431   1_655  A
C814        C815   1.524       .  S
C815        F819   1.385       .  S
C815        F820   1.383   1_455  S
C815        F821   1.384       .  S
C818        F822   1.383       .  S
C818        F823   1.383       .  S
C818        F824   1.384       .  S
C825        C826   1.402       .  A
C825        C830   1.406       .  A
C825        H832   1.083       .  S
C826        C827   1.414       .  A
C827        C828   1.392       .  A
C827        C834   1.520       .  S
C828        C829   1.399       .  A
C828        H833   1.085       .  S
C829        C830   1.415       .  A
C830        C831   1.517       .  S
C831        F835   1.385       .  S
C831        F836   1.382       .  S
C831        F837   1.383       .  S
C834        F838   1.382       .  S
C834        F839   1.384       .  S
C834        F840   1.385       .  S
C841        C842   1.398       .  A
C841        C846   1.409       .  A
C841        H848   1.083       .  S
C842        C843   1.420       .  A
C843        C844   1.404       .  A
C843        C850   1.517       .  S
C844        C845   1.404       .  A
C844        H849   1.084       .  S
C845        C846   1.428       .  A
C846        C847   1.520       .  S
C847        F851   1.385       .  S
C847        F852   1.383       .  S
C847        F853   1.382       .  S
C850        F854   1.384       .  S
C850        F855   1.383       .  S
C850        F856   1.383       .  S
C857        C858   1.412   1_545  A
C857        C862   1.404       .  A
C857        H864   1.083       .  S
C858        C859   1.421       .  A
C859        C860   1.401   1_565  A
C859        C866   1.523       .  S
C860        C861   1.400       .  A
C860        H865   1.084       .  S
C861        C862   1.408       .  A
C862        C863   1.518       .  S
C863        F867   1.384       .  S
C863        F868   1.382       .  S
C863        F869   1.384       .  S
C866        F870   1.381       .  S
C866        F871   1.383       .  S
C866        F872   1.385       .  S
C873        C874   1.405       .  A
C873        C878   1.400       .  A
C873        H880   1.084       .  S
C874        C875   1.407   1_455  A
C875        C876   1.387   1_655  A
C875        C882   1.525       .  S
C876        C877   1.411       .  A
C876        H881   1.082       .  S
C877        C878   1.418       .  A
C878        C879   1.521       .  S
C879        F883   1.385       .  S
C879        F884   1.384       .  S
C879        F885   1.383       .  S
C882        F886   1.384       .  S
C882        F887   1.381       .  S
C882        F888   1.385       .  S
C889        C890   1.403       .  A
C889        C894   1.407       .  A
C889        H896   1.084       .  S
C890        C891   1.406       .  A
C891        C892   1.396       .  A
C891        C898   1.521       .  S
C892        C893   1.410       .  A
C892        H897   1.083       .  S
C893        C894   1.418       .  A
C894        C895   1.520       .  S
C895        F899   1.385       .  S
C895        F900   1.383       .  S
C895        F901   1.381       .  S
C898        F902   1.384       .  S
C898        F903   1.382       .  S
C898        F904   1.381       .  S
C905        C906   1.408       .  A
C905        C910   1.416       .  A
C905        H912   1.083       .  S
C906        C907   1.417       .  A
C907        C908   1.392       .  A
C907        C914   1.523       .  S
C908        C909   1.401       .  A
C908        H913   1.085       .  S
C909        C910   1.414       .  A
C910        C911   1.514       .  S
C911        F915   1.384       .  S
C911        F916   1.382       .  S
C911        F917   1.383       .  S
C914        F918   1.382       .  S
C914        F919   1.384       .  S
C914        F920   1.382       .  S
C921        C922   1.403   1_455  A
C921        C926   1.397       .  A
C921        H928   1.084       .  S
C922        C923   1.409       .  A
C923        C924   1.401       .  A
C923        C930   1.519       .  S
C924        C925   1.410   1_655  A
C924        H929   1.084       .  S
C925        C926   1.415       .  A
C926        C927   1.522       .  S
C927        F931   1.385       .  S
C927        F932   1.381       .  S
C927        F933   1.383       .  S
C930        F934   1.382       .  S
C930        F935   1.384       .  S
C930        F936   1.385       .  S
C937        C938   1.411   1_565  A
C937        C942   1.405       .  A
C937        H944   1.084       .  S
C938        C939   1.410       .  A
C939        C940   1.393   1_545  A
C939        C946   1.523       .  S
C940        C941   1.410       .  A
C940        H945   1.083       .  S
C941        C942   1.413       .  A
C942        C943   1.519       .  S
C943        F947   1.385       .  S
C943        F948   1.384       .  S
C943        F949   1.383       .  S
C946        F950   1.384       .  S
C946        F951   1.381       .  S
C946        F952   1.385       .  S
