geometry optimzed in LAMMPS
_audit_creation_date              2020-11-30 
_audit_creation_method            'lammps2cif' 
_symmetry_space_group_name_H-M    'P1' 
_symmetry_Int_Tables_number       1 
_symmetry_cell_setting            triclinic 
loop_ 
_symmetry_equiv_pos_as_xyz 
  x,y,z 
_cell_length_a                    24.70964635 
_cell_length_b                    24.567507608697987 
_cell_length_c                    24.829006680067106 
_cell_angle_alpha                 90.0177454310777 
_cell_angle_beta                  90.54424712269653 
_cell_angle_gamma                 88.66749787606972 
loop_ 
_atom_site_label 
_atom_site_type_symbol 
_atom_site_fract_x 
_atom_site_fract_y 
_atom_site_fract_z 
_atom_site_charge 
C1          C  0.82442432  0.90635673  0.89215809     0.85500
C2          C  0.87024075  0.93558613  0.86402896    -0.54800
C3          C  0.89974030  0.90387228  0.82920218     0.08400
C4          C  0.87867829  0.84465627  0.82476185     0.19400
C5          C  0.78988745  0.88351205  0.84715401    -0.55500
C6          C  0.81671270  0.85098109  0.81147138     0.08500
C7          C  0.85291842  0.85656737  0.91843941    -0.55000
C8          C  0.88168856  0.82400456  0.88377616     0.09100
H9          H  0.87885679  0.97799896  0.87191216     0.13600
H10         H  0.90148870  0.81817781  0.79629061    -0.00700
H11         H  0.74624799  0.89021256  0.84591207     0.13900
H12         H  0.85537945  0.85021896  0.96151061     0.13700
O13         O  0.78823037  0.89705549  0.43534776    -0.81100
O14         O  0.79088529  0.81163628  0.30681405    -0.81200
O15         O  0.84724044  0.98346863  0.32589400    -0.81200
O16         O  0.80873765  0.77799086  0.42924009    -0.81100
O17         O  0.78954881  0.91943384  0.30498138    -0.81200
O18         O  0.82554608  0.81971914  0.50654546    -0.81200
O19         O  0.84556770  0.74509135  0.32703030    -0.81100
O20         O  0.84014977  0.96896734  0.43176889    -0.81200
C21         C  0.79494053  0.94753063  0.44260223     1.08600
C22         C  0.80369425  0.76227386  0.30187437     1.08400
C23         C  0.80038013  0.96865526  0.31128025     1.08600
C24         C  0.80023803  0.78465987  0.48017010     1.08500
O25         O  0.92186756  0.80131660  0.45996299    -0.81100
O26         O  0.89678471  0.92138068  0.25912111    -0.81200
O27         O  0.94994602  0.91882651  0.43363823    -0.81200
O28         O  0.94733997  0.79301357  0.34677370    -0.81100
O29         O  0.90370867  0.80986969  0.26950132    -0.81200
O30         O  0.88753260  0.90234002  0.49150096    -0.81200
O31         O  0.90463525  0.72303694  0.42060906    -0.81100
O32         O  0.95458959  0.93107560  0.32566653    -0.81200
Co33       Co  0.85263287  0.84907732  0.44286932     1.51500
Co34       Co  0.84576940  0.86530386  0.28955206     1.51700
Co35       Co  0.89784866  0.94557128  0.37885049     1.51600
Co36       Co  0.88021024  0.78957497  0.38698350     1.51500
O37         O  0.86993094  0.86929340  0.36737496    -1.43100
C38         C  0.93001916  0.74923313  0.45646703     1.08500
C39         C  0.94221669  0.93772858  0.27679145     1.08600
C40         C  0.93337866  0.92014532  0.48118704     1.08500
C41         C  0.94488054  0.79186082  0.29604317     1.08500
O42         O  0.95472819  0.43173694  0.92518877    -0.81100
O43         O  0.91330194  0.22135180  0.83193440    -0.81200
O44         O  0.91400611  0.31533073  0.97853373    -0.81200
O45         O  0.89667031  0.39978523  0.75578812    -0.81100
O46         O  0.95838029  0.29588066  0.90276440    -0.81200
O47         O  0.95372018  0.41652130  0.82035175    -0.81200
O48         O  0.92134235  0.29563506  0.78312509    -0.81100
O49         O  0.89638416  0.42546869  0.98961254    -0.81200
C50         C  0.94073373  0.44279753  0.97197995     1.08600
C51         C  0.92868362  0.24383077  0.78933562     1.08400
C52         C  0.95627682  0.29704147  0.95406128     1.08600
C53         C  0.94202663  0.41822478  0.77113083     1.08500
O54         O  0.84648090  0.46693396  0.81320349    -0.81100
O55         O  0.86235292  0.24569904  0.92222610    -0.81200
O56         O  0.79061612  0.41666813  0.94143216    -0.81200
O57         O  0.82204844  0.31495660  0.74236398    -0.81100
O58         O  0.81595318  0.27231004  0.82065767    -0.81200
O59         O  0.84457231  0.48378533  0.92199750    -0.81200
O60         O  0.79363108  0.39588495  0.81160664    -0.81100
O61         O  0.80177408  0.30778618  0.93711858    -0.81200
Co62       Co  0.89972040  0.44549072  0.87045732     1.51500
Co63       Co  0.89001761  0.28913430  0.86141268     1.51700
Co64       Co  0.85090476  0.36554513  0.95723191     1.51600
Co65       Co  0.85572350  0.34676105  0.80336379     1.51500
O66         O  0.87521682  0.36835899  0.87958728    -1.43100
C67         C  0.80276096  0.44454094  0.79992313     1.08500
C68         C  0.82062966  0.26120994  0.94639236     1.08600
C69         C  0.79958884  0.46704723  0.94088669     1.08500
C70         C  0.80039989  0.27838383  0.77061755     1.08500
O71         O  0.35961764  0.93062373  0.01240970    -0.81100
O72         O  0.28126123  0.82669370  0.82146914    -0.81200
O73         O  0.36242362  0.99129594  0.83033064    -0.81200
O74         O  0.34408618  0.77553210  0.94457166    -0.81100
O75         O  0.29665452  0.93548651  0.82341964    -0.81200
O76         O  0.30518898  0.85707441  0.95187460    -0.81200
O77         O  0.33326305  0.75457058  0.83730392    -0.81100
O78         O  0.33566005  0.96786211  0.93494764    -0.81200
C79         C  0.33113131  0.96567039  0.98674756     1.08600
C80         C  0.28815595  0.77560055  0.82187919     1.08400
C81         C  0.31551005  0.98129430  0.81360173     1.08600
C82         C  0.30433979  0.80634978  0.95871593     1.08500
O83         O  0.41317613  0.83270340  0.99310093    -0.81100
O84         O  0.39999875  0.91964288  0.76620457    -0.81200
O85         O  0.43580457  0.00554284  0.91084379    -0.81200
O86         O  0.44273414  0.78554129  0.81869456    -0.81100
O87         O  0.37859448  0.80984425  0.76051137    -0.81200
O88         O  0.45135275  0.92731058  0.95233039    -0.81200
O89         O  0.45950702  0.80245800  0.92549795    -0.81100
O90         O  0.45825303  0.92829777  0.83398921    -0.81200
Co91       Co  0.37565898  0.89159433  0.94787384     1.51500
Co92       Co  0.34047560  0.87303187  0.79757885     1.51700
Co93       Co  0.39965349  0.94289573  0.88507258     1.51600
Co94       Co  0.39504491  0.78477363  0.88152563     1.51500
O95         O  0.37726377  0.86542884  0.87078257    -1.43100
C96         C  0.45436580  0.80660883  0.97564246     1.08500
C97         C  0.44615713  0.93439915  0.78456938     1.08600
C98         C  0.46334238  0.97743852  0.94430487     1.08500
C99         C  0.42221843  0.78388173  0.77200688     1.08500
C100        C  0.31457864  0.31476901  0.85392907     0.85500
C101        C  0.35175969  0.28520129  0.89494101    -0.54800
C102        C  0.38463228  0.31882113  0.92381383     0.08400
C103        C  0.37799693  0.37938203  0.90815072     0.19400
C104        C  0.28452082  0.35810606  0.88617612    -0.55500
C105        C  0.31635138  0.39068517  0.91653914     0.08500
C106        C  0.35391893  0.34591732  0.81853331    -0.55000
C107        C  0.38817284  0.37948565  0.84597167     0.09100
H108        H  0.35356276  0.24137177  0.89993467     0.13600
H109        H  0.40444414  0.40658028  0.93180891    -0.00700
H110        H  0.24055316  0.35991393  0.88809625     0.13900
H111        H  0.35519956  0.34058250  0.77518453     0.13700
C112        C  0.40436614  0.90599361  0.31772315     0.85500
C113        C  0.35880167  0.93567912  0.34813540    -0.54800
C114        C  0.32583520  0.90251529  0.37621271     0.08400
C115        C  0.34219795  0.84138796  0.37208047     0.19400
C116        C  0.43455864  0.87223913  0.36101362    -0.55500
C117        C  0.40267537  0.83873400  0.38985199     0.08500
C118        C  0.37565660  0.86404153  0.28279872    -0.55000
C119        C  0.34240871  0.83076172  0.31048387     0.09100
H120        H  0.35329506  0.97972743  0.34768757     0.13600
H121        H  0.31564591  0.81409547  0.39504847    -0.00700
H122        H  0.47729522  0.87381519  0.36974592     0.13900
H123        H  0.37794189  0.86360916  0.23908493     0.13700
C124        C  0.89823117  0.41904569  0.33991476     0.85500
C125        C  0.85842212  0.44659593  0.37970848    -0.54800
C126        C  0.82972234  0.41027533  0.41030029     0.08400
C127        C  0.84432486  0.34977602  0.39785878     0.19400
C128        C  0.93379913  0.38190192  0.37567075    -0.55500
C129        C  0.90656987  0.34500698  0.40527716     0.08500
C130        C  0.86290911  0.38070199  0.30706461    -0.55000
C131        C  0.83536180  0.34448672  0.33676241     0.09100
H132        H  0.85270117  0.49034195  0.38323387     0.13600
H133        H  0.82180801  0.31984254  0.42193567    -0.00700
H134        H  0.97775355  0.38277526  0.37512293     0.13900
H135        H  0.86098202  0.38108728  0.26329064     0.13700
O136        O  0.19840870  0.09657196  0.70049310    -0.81100
O137        O  0.15493362  0.14088292  0.51025924    -0.81200
O138        O  0.19291970  0.02115658  0.56110197    -0.81200
O139        O  0.16247519  0.19406206  0.68559520    -0.81100
O140        O  0.13003748  0.04165542  0.50013289    -0.81200
O141        O  0.12460315  0.15412973  0.75605948    -0.81200
O142        O  0.18797440  0.18430797  0.57845351    -0.81100
O143        O  0.19943760  0.01159623  0.67313114    -0.81200
C144        C  0.21892052  0.04941552  0.70122472     1.08600
C145        C  0.19007345  0.17137690  0.52990836     1.08400
C146        C  0.17574790  0.01880866  0.51305177     1.08600
C147        C  0.15526981  0.19029038  0.73691097     1.08500
O148        O  0.04017595  0.11723067  0.69170123    -0.81100
O149        O  0.02969658  0.06066975  0.56661383    -0.81200
O150        O  0.08549631  0.98945269  0.67046338    -0.81200
O151        O  0.07003342  0.19121434  0.54798553    -0.81100
O152        O  0.05079157  0.13066996  0.48415621    -0.81200
O153        O  0.10383948  0.04325452  0.73761412    -0.81200
O154        O  0.05060367  0.19589951  0.65571951    -0.81100
O155        O  0.08255349  0.98797288  0.56634076    -0.81200
Co156      Co  0.11913839  0.10921373  0.69300405     1.51500
Co157      Co  0.09214154  0.10272922  0.54364391     1.51700
Co158      Co  0.14047196  0.00904674  0.61772675     1.51600
Co159      Co  0.11911022  0.18110910  0.61647297     1.51500
O160        O  0.12352617  0.09195616  0.61639589    -1.43100
C161        C  0.02312791  0.16460731  0.68361245     1.08500
C162        C  0.03600885  0.00985979  0.56273397     1.08600
C163        C  0.07880256  0.00302873  0.71863255     1.08500
C164        C  0.04494904  0.17843635  0.50371687     1.08500
O165        O  0.03034453  0.70200677  0.05341244    -0.81100
O166        O  0.07102041  0.50056851  0.16159301    -0.81200
O167        O  0.08135366  0.56706215  0.00991067    -0.81200
O168        O  0.09429297  0.68135523  0.22416177    -0.81100
O169        O  0.03350574  0.56962250  0.08406313    -0.81200
O170        O  0.03559359  0.69849410  0.16089229    -0.81200
O171        O  0.05502863  0.58113127  0.19754039    -0.81100
O172        O  0.08428939  0.67685096  0.98748964    -0.81200
C173        C  0.03915370  0.69658288  0.00368787     1.08600
C174        C  0.04518058  0.52968888  0.19527843     1.08400
C175        C  0.03875156  0.55559752  0.03593116     1.08600
C176        C  0.05016947  0.70288469  0.20898918     1.08500
O177        O  0.14759724  0.73908792  0.15930267    -0.81100
O178        O  0.13904730  0.51173097  0.07376627    -0.81200
O179        O  0.19318182  0.67906573  0.03285452    -0.81200
O180        O  0.15205977  0.58925506  0.24766032    -0.81100
O181        O  0.16843218  0.54531105  0.17209882    -0.81200
O182        O  0.13748336  0.74799637  0.04923652    -0.81200
O183        O  0.19429180  0.66231322  0.17536307    -0.81100
O184        O  0.19386312  0.57523358  0.05344954    -0.81200
Co185      Co  0.08837263  0.71718567  0.10592477     1.51500
Co186      Co  0.09947724  0.56230458  0.12683782     1.51700
Co187      Co  0.13750428  0.62485522  0.02552007     1.51600
Co188      Co  0.12762654  0.62089922  0.18128221     1.51500
O189        O  0.11462671  0.63876173  0.10261271    -1.43100
C190        C  0.18970204  0.71380984  0.17839112     1.08500
C191        C  0.18423425  0.52567361  0.05457898     1.08600
C192        C  0.18244812  0.72907894  0.03228733     1.08500
C193        C  0.17366891  0.54918115  0.22345989     1.08500
O194        O  0.69115150  0.10151902  0.01485831    -0.81100
O195        O  0.57051385  0.07643253  0.20777021    -0.81200
O196        O  0.68640580  0.04444532  0.18839772    -0.81200
O197        O  0.56978216  0.05362106  0.08597747    -0.81100
O198        O  0.66982937  0.10680546  0.24724555    -0.81200
O199        O  0.58293887  0.10769127  0.01622244    -0.81200
O200        O  0.49633778  0.09291277  0.15888698    -0.81100
O201        O  0.69902426  0.04059470  0.08001299    -0.81200
C202        C  0.70296597  0.05338378  0.03094763     1.08600
C203        C  0.52031437  0.06691368  0.19646452     1.08400
C204        C  0.68957533  0.06088960  0.23602881     1.08600
C205        C  0.56681566  0.06302309  0.03583888     1.08500
O206        O  0.58657198  0.21735969  0.06376684    -0.81100
O207        O  0.66649745  0.20697208  0.19486968    -0.81200
O208        O  0.75608784  0.14003107  0.08281440    -0.81200
O209        O  0.54628666  0.18691749  0.18080277    -0.81100
O210        O  0.58602842  0.17166301  0.25993280    -0.81200
O211        O  0.69706600  0.20673001  0.06750683    -0.81200
O212        O  0.52287900  0.15992065  0.07850586    -0.81100
O213        O  0.73852704  0.15163729  0.18980236    -0.81200
Co214      Co  0.63942328  0.15829831  0.04534941     1.51500
Co215      Co  0.61844616  0.14473175  0.19685232     1.51700
Co216      Co  0.71554184  0.09483794  0.13501222     1.51600
Co217      Co  0.56345264  0.11719828  0.13436554     1.51500
O218        O  0.64142186  0.12910170  0.12153894    -1.43100
C219        C  0.53714942  0.20579729  0.06147484     1.08500
C220        C  0.71627631  0.19691392  0.20431734     1.08600
C221        C  0.74426605  0.18688605  0.06449291     1.08500
C222        C  0.55087732  0.19661207  0.23177106     1.08500
C223        C  0.58433374  0.57507762  0.15966723     0.85500
C224        C  0.63048376  0.59946498  0.19307809    -0.54800
C225        C  0.66271838  0.63401048  0.16555188     0.08400
C226        C  0.64654526  0.63996979  0.10514315     0.19400
C227        C  0.55442300  0.62397057  0.13436674    -0.55500
C228        C  0.58574058  0.65821819  0.10562979     0.08500
C229        C  0.61388808  0.54705433  0.11218816    -0.55000
C230        C  0.64736206  0.58035497  0.08347504     0.09100
H231        H  0.63592503  0.59167122  0.23584837     0.13600
H232        H  0.67256971  0.66794251  0.08241416    -0.00700
H233        H  0.51087483  0.62995798  0.13783043     0.13900
H234        H  0.61157120  0.50380106  0.10414276     0.13700
C235        C  0.14485617  0.64723016  0.68705822     0.85500
C236        C  0.10891339  0.60433159  0.71236281    -0.54800
C237        C  0.08179618  0.57299471  0.67584312     0.08400
C238        C  0.09361044  0.58704737  0.61676023     0.19400
C239        C  0.18212674  0.61481872  0.64895735    -0.55500
C240        C  0.15576409  0.58233698  0.61316595     0.08500
C241        C  0.10666864  0.67952374  0.64863194    -0.55000
C242        C  0.07988929  0.64859488  0.61125192     0.09100
H243        H  0.10559489  0.59892497  0.75558409     0.13600
H244        H  0.07288111  0.56025226  0.58760599    -0.00700
H245        H  0.22597605  0.61618179  0.65115134     0.13900
H246        H  0.10134788  0.72317120  0.65046861     0.13700
O247        O  0.37907207  0.31132614  0.52031708    -0.81100
O248        O  0.38941473  0.43047548  0.26982312    -0.81200
O249        O  0.41092523  0.26418649  0.33980696    -0.81200
O250        O  0.39999605  0.47611611  0.45186350    -0.81100
O251        O  0.42912384  0.33809506  0.29742826    -0.81200
O252        O  0.43132934  0.39455805  0.47447863    -0.81200
O253        O  0.42217795  0.47572794  0.34071618    -0.81100
O254        O  0.41955221  0.28911954  0.44424019    -0.81200
C255        C  0.41723205  0.28583829  0.49619559     1.08600
C256        C  0.42355121  0.46350541  0.29064312     1.08400
C257        C  0.44018001  0.28946943  0.30789893     1.08600
C258        C  0.42984645  0.44546055  0.48033377     1.08500
O259        O  0.31987821  0.40889845  0.49506156    -0.81100
O260        O  0.33150418  0.32769276  0.24665275    -0.81200
O261        O  0.33249013  0.23302678  0.41043738    -0.81200
O262        O  0.31250565  0.48006939  0.32119251    -0.81100
O263        O  0.28013011  0.39979122  0.31162410    -0.81200
O264        O  0.29649267  0.30755134  0.44679878    -0.81200
O265        O  0.28973189  0.46043580  0.42762437    -0.81100
O266        O  0.29962947  0.29642888  0.32508675    -0.81200
Co267      Co  0.36540925  0.35366470  0.45569137     1.51500
Co268      Co  0.35522774  0.36673866  0.30811252     1.51700
Co269      Co  0.35799230  0.30162709  0.38716986     1.51600
Co270      Co  0.35709041  0.46685908  0.38561478     1.51500
O271        O  0.37089077  0.38456740  0.38054058    -1.43100
C272        C  0.28733940  0.44510960  0.47617975     1.08500
C273        C  0.29947767  0.29691756  0.27235881     1.08600
C274        C  0.29696090  0.25521406  0.44027795     1.08500
C275        C  0.27564951  0.45030540  0.30512330     1.08500
O276        O  0.61780788  0.72945070  0.68130533    -0.81100
O277        O  0.62823007  0.48899314  0.57863031    -0.81200
O278        O  0.67250452  0.56176649  0.73732457    -0.81200
O279        O  0.66992980  0.65957686  0.52585034    -0.81100
O280        O  0.67528839  0.51166080  0.66601304    -0.81200
O281        O  0.66527428  0.71048568  0.59602750    -0.81200
O282        O  0.67219025  0.55666879  0.54466336    -0.81100
O283        O  0.66675236  0.66541450  0.71999582    -0.81200
C284        C  0.65988438  0.71476303  0.70831506     1.08600
C285        C  0.66732806  0.50634814  0.55038412     1.08400
C286        C  0.69426604  0.52493451  0.71048278     1.08600
C287        C  0.68722186  0.69784273  0.55287484     1.08500
O288        O  0.56128491  0.74482944  0.58149171    -0.81100
O289        O  0.57441302  0.47216817  0.68145235    -0.81200
O290        O  0.55063533  0.66312787  0.72418804    -0.81200
O291        O  0.55697729  0.55485254  0.53754154    -0.81100
O292        O  0.52738567  0.54851550  0.61903650    -0.81200
O293        O  0.52085762  0.66612171  0.64205004    -0.81200
O294        O  0.55202004  0.66983644  0.53178608    -0.81100
O295        O  0.55684763  0.54679048  0.73033841    -0.81200
Co296      Co  0.59400466  0.68391338  0.61700912     1.51500
Co297      Co  0.60175687  0.53380145  0.64417839     1.51700
Co298      Co  0.61180160  0.60946107  0.71815665     1.51600
Co299      Co  0.61290915  0.61024995  0.54490833     1.51500
O300        O  0.62306016  0.60983771  0.63156109    -1.43100
C301        C  0.53953418  0.72055094  0.54175365     1.08500
C302        C  0.55037988  0.49515215  0.72105872     1.08600
C303        C  0.51423433  0.67663062  0.69089446     1.08500
C304        C  0.52216848  0.53906254  0.56989302     1.08500
C305        C  0.64991324  0.07007612  0.58216722     0.85500
C306        C  0.61234827  0.11319542  0.55623028    -0.54800
C307        C  0.58280488  0.14429889  0.59177613     0.08400
C308        C  0.59409812  0.12856536  0.65138859     0.19400
C309        C  0.68490343  0.10170716  0.62244294    -0.55500
C310        C  0.65633011  0.13296076  0.65818004     0.08500
C311        C  0.61278969  0.03665964  0.61781677    -0.55000
C312        C  0.58328645  0.06667049  0.65350261     0.09100
H313        H  0.60859821  0.11724650  0.51277628     0.13600
H314        H  0.57068317  0.15314345  0.68100406    -0.00700
H315        H  0.72882996  0.10160922  0.62113312     0.13900
H316        H  0.60983602  0.99279024  0.61676185     0.13700
C317        C  0.07954325  0.08358996  0.15405625     0.85500
C318        C  0.11220015  0.12307270  0.18953154    -0.54800
C319        C  0.14765611  0.15507776  0.16185627     0.08400
C320        C  0.14611127  0.14438482  0.10025636     0.19400
C321        C  0.05170983  0.12124133  0.11235350    -0.55500
C322        C  0.08610620  0.15318055  0.08444651     0.08500
C323        C  0.12253554  0.05142950  0.12278252    -0.55000
C324        C  0.15772935  0.08256128  0.09497965     0.09100
H325        H  0.10818578  0.12403501  0.23298230     0.13600
H326        H  0.17336375  0.16973387  0.07615972    -0.00700
H327        H  0.00825167  0.12624327  0.10774693     0.13900
H328        H  0.12574887  0.00724688  0.12380215     0.13700
C329        C  0.21147731  0.24768404  0.26802924    -0.14300
C330        C  0.25894274  0.26417215  0.24258587     0.07800
C331        C  0.26835939  0.24677890  0.18954079    -0.14300
C332        C  0.23227809  0.21200690  0.16331463    -0.14300
C333        C  0.18499825  0.19454936  0.18895832     0.07800
C334        C  0.17476113  0.21403648  0.24142491    -0.14300
H335        H  0.20266759  0.26082306  0.30870297     0.11800
H336        H  0.30479561  0.25842717  0.16893985     0.11800
H337        H  0.24283371  0.19766950  0.12359756     0.11800
H338        H  0.13838938  0.20331160  0.26253292     0.11800
C339        C  0.51099639  0.24668600  0.49995811    -0.23100
C340        C  0.46127861  0.25578332  0.52573587     0.07800
C341        C  0.45413536  0.23328411  0.57725157    -0.14300
C342        C  0.49453018  0.19889775  0.60040816    -0.14300
C343        C  0.54287901  0.18705703  0.57260971     0.07800
C344        C  0.55128338  0.21344977  0.52323141    -0.14300
H345        H  0.51850123  0.26450688  0.46093440     0.11800
H346        H  0.41638080  0.24003506  0.59836264     0.11800
H347        H  0.48671904  0.17958369  0.63857821     0.11800
H348        H  0.58874037  0.20741772  0.50152063     0.11800
C349        C  0.48411853  0.50156658  0.55014923    -0.14300
C350        C  0.46020501  0.47087160  0.52163151    -0.15800
C351        C  0.17097802  0.53535867  0.52441445    -0.14300
C352        C  0.18539234  0.54257340  0.57867964     0.07800
C353        C  0.22982109  0.51270485  0.60003724    -0.14300
C354        C  0.26085385  0.47822050  0.56729557    -0.14300
C355        C  0.24863949  0.47350772  0.51223006     0.07800
C356        C  0.20276950  0.50156593  0.49124102    -0.14300
H357        H  0.13673938  0.55770097  0.50716560     0.11800
H358        H  0.24112872  0.51672510  0.64209708     0.11800
H359        H  0.29602138  0.45740220  0.58453543     0.11800
H360        H  0.19240335  0.49853676  0.44889313     0.11800
C361        C  0.52549885  0.56528715  0.24200554    -0.14300
C362        C  0.54513026  0.54201336  0.19386108     0.07800
C363        C  0.52303949  0.49218446  0.17707493    -0.14300
C364        C  0.48315815  0.46666950  0.20787469    -0.14300
C365        C  0.46482135  0.48995308  0.25643446     0.07800
C366        C  0.48696643  0.53935708  0.27313712    -0.14300
H367        H  0.53971886  0.60444317  0.25553754     0.11800
H368        H  0.53496003  0.47344551  0.13951365     0.11800
H369        H  0.46685085  0.42863776  0.19383963     0.11800
H370        H  0.47355910  0.55882883  0.30992273     0.11800
C371        C  0.51599219  0.23522552  0.25703949    -0.14300
C372        C  0.48342606  0.26226099  0.28110550    -0.15800
C373        C  0.20388349  0.50835841  0.25239495    -0.14300
C374        C  0.23195955  0.47585974  0.27641305    -0.15800
C375        C  0.25892572  0.22217800  0.46803475    -0.14300
C376        C  0.22909379  0.19589864  0.49551990    -0.15800
C377        C  0.71956948  0.27679077  0.26693337    -0.14300
C378        C  0.74681398  0.23474029  0.23876587     0.07800
C379        C  0.80265640  0.22642290  0.24748502    -0.14300
C380        C  0.83085721  0.26035397  0.28242377    -0.14300
C381        C  0.80365170  0.30256665  0.30974950     0.07800
C382        C  0.74785202  0.31046010  0.30221481    -0.14300
H383        H  0.67637754  0.28369608  0.26175577     0.11800
H384        H  0.82463461  0.19412866  0.22688505     0.11800
H385        H  0.87433445  0.25475870  0.28700572     0.11800
H386        H  0.72668758  0.34380227  0.32204481     0.11800
C387        C  0.97045511  0.53533790  0.26496178    -0.14300
C388        C  0.00468839  0.50450774  0.23077244     0.07800
C389        C  0.00229999  0.44769345  0.23233975    -0.14300
C390        C  0.96769208  0.42208600  0.26741009    -0.14300
C391        C  0.93352241  0.45202653  0.30226565     0.07800
C392        C  0.93486957  0.50931084  0.30032684    -0.14300
H393        H  0.97153332  0.57936732  0.26466210     0.11800
H394        H  0.02818938  0.42251180  0.20706691     0.11800
H395        H  0.96793719  0.37798890  0.26772545     0.11800
H396        H  0.90934008  0.53405096  0.32619717     0.11800
C397        C  0.92656697  0.24639875  0.42746804    -0.14300
C398        C  0.93720100  0.30177940  0.43549607     0.07800
C399        C  0.98299854  0.31575460  0.46601689    -0.14300
C400        C  0.01786573  0.27556194  0.48734673    -0.14300
C401        C  0.00846806  0.22013772  0.47814054     0.07800
C402        C  0.96216881  0.20585918  0.44827138    -0.14300
H403        H  0.89203926  0.23459652  0.40329547     0.11800
H404        H  0.99242799  0.35815838  0.47251818     0.11800
H405        H  0.05283632  0.28795966  0.51052237     0.11800
H406        H  0.95331690  0.16338922  0.44137559     0.11800
C407        C  0.73862277  0.40344878  0.45751357    -0.14300
C408        C  0.78926979  0.42835171  0.45177483     0.07800
C409        C  0.80081716  0.47282587  0.48490327    -0.14300
C410        C  0.76221376  0.49382335  0.52047124    -0.14300
C411        C  0.71008175  0.47189816  0.52381537     0.07800
C412        C  0.69908133  0.42531363  0.49297286    -0.14300
H413        H  0.72855422  0.36891948  0.43249601     0.11800
H414        H  0.83959219  0.49229202  0.48250530     0.11800
H415        H  0.77235645  0.52964640  0.54369508     0.11800
H416        H  0.65922115  0.40797828  0.49377161     0.11800
C417        C  0.26007117  0.82803289  0.25223827    -0.14300
C418        C  0.30127282  0.79963408  0.28061193     0.07800
C419        C  0.30686948  0.74320294  0.27406282    -0.14300
C420        C  0.27165815  0.71552975  0.23949678    -0.14300
C421        C  0.23018898  0.74386434  0.21087094     0.07800
C422        C  0.22476408  0.80049653  0.21792509    -0.14300
H423        H  0.25577762  0.87186801  0.25616896     0.11800
H424        H  0.33910369  0.72081830  0.29475954     0.11800
H425        H  0.27667254  0.67178575  0.23555615     0.11800
H426        H  0.19308790  0.82356496  0.19711869     0.11800
C427        C  0.43666698  0.01617238  0.21612532    -0.14300
C428        C  0.49182483  0.02465576  0.22582986     0.07800
C429        C  0.51954190  0.99295327  0.26446090    -0.14300
C430        C  0.49257769  0.95375162  0.29362465    -0.14300
C431        C  0.43689608  0.94552467  0.28486709     0.07800
C432        C  0.40956611  0.97703811  0.24532809    -0.14300
H433        H  0.41428208  0.04014157  0.18652574     0.11800
H434        H  0.56216525  0.99863211  0.27257055     0.11800
H435        H  0.51611337  0.93141749  0.32289557     0.11800
H436        H  0.36677072  0.97186346  0.23768292     0.11800
C437        C  0.27592318  0.91195578  0.46261083    -0.14300
C438        C  0.28040573  0.92564036  0.40826395     0.07800
C439        C  0.24606181  0.96704100  0.38672535    -0.14300
C440        C  0.20966059  0.99603239  0.41976122    -0.14300
C441        C  0.20798837  0.98482987  0.47504601     0.07800
C442        C  0.24050550  0.94151870  0.49573919    -0.14300
H443        H  0.30216898  0.88060519  0.48019759     0.11800
H444        H  0.24877690  0.97811153  0.34465041     0.11800
H445        H  0.18493281  0.02887652  0.40268747     0.11800
H446        H  0.23957270  0.93133407  0.53809827     0.11800
C447        C  0.43227152  0.74993356  0.43285382    -0.14300
C448        C  0.42727712  0.80687165  0.43528377     0.07800
C449        C  0.45629608  0.83458543  0.47543634    -0.14300
C450        C  0.49111051  0.80642941  0.51109423    -0.14300
C451        C  0.49837520  0.74967809  0.50722485     0.07800
C452        C  0.46760002  0.72159412  0.46838558    -0.14300
H453        H  0.41141995  0.72776902  0.40148422     0.11800
H454        H  0.45394355  0.87864889  0.47746633     0.11800
H455        H  0.51404880  0.82945844  0.54024835     0.11800
H456        H  0.47203539  0.67782969  0.46436007     0.11800
C457        C  0.25542075  0.23036599  0.84474425    -0.14300
C458        C  0.27399512  0.28005387  0.82378416     0.07800
C459        C  0.24728436  0.30227322  0.77837937    -0.14300
C460        C  0.20658079  0.27404785  0.75217062    -0.14300
C461        C  0.19022688  0.22339930  0.77145186     0.07800
C462        C  0.21414967  0.20215905  0.81852303    -0.14300
H463        H  0.27166992  0.21334164  0.88163610     0.11800
H464        H  0.25790586  0.34185472  0.76296115     0.11800
H465        H  0.18840947  0.29143644  0.71611868     0.11800
H466        H  0.20226540  0.16299742  0.83400183     0.11800
C467        C  0.24794491  0.39974365  0.99058869    -0.14300
C468        C  0.29086007  0.42239486  0.96130974     0.07800
C469        C  0.30341304  0.47676180  0.97038742    -0.14300
C470        C  0.27049944  0.50908415  0.00388735    -0.14300
C471        C  0.22413783  0.48778599  0.02877086     0.07800
C472        C  0.21463924  0.43214802  0.02355111    -0.14300
H473        H  0.23829177  0.35722798  0.98566641     0.11800
H474        H  0.33626371  0.49512125  0.94890618     0.11800
H475        H  0.27972258  0.55180547  0.00771256     0.11800
H476        H  0.18012065  0.41427282  0.04272230     0.11800
C477        C  0.40562078  0.25357021  0.99828413    -0.14300
C478        C  0.42188697  0.29720106  0.96623734     0.07800
C479        C  0.47484142  0.31610239  0.97191364    -0.14300
C480        C  0.51224282  0.28853246  0.00564984    -0.14300
C481        C  0.49680909  0.24202616  0.03429654     0.07800
C482        C  0.44259712  0.22630175  0.03179313    -0.14300
H483        H  0.36459244  0.23915370  0.99593521     0.11800
H484        H  0.48823652  0.34995074  0.94782337     0.11800
H485        H  0.55368934  0.30176963  0.00706807     0.11800
H486        H  0.42911532  0.19112126  0.05389897     0.11800
C487        C  0.45189024  0.45874707  0.83378097    -0.14300
C488        C  0.43350016  0.40759253  0.81730542     0.07800
C489        C  0.45740801  0.38383375  0.77110110    -0.14300
C490        C  0.49593181  0.41144301  0.74080649    -0.14300
C491        C  0.51210413  0.46389333  0.75551465     0.07800
C492        C  0.49036992  0.48662240  0.80318064    -0.14300
H493        H  0.43508020  0.47819869  0.86923169     0.11800
H494        H  0.44615631  0.34368828  0.75785210     0.11800
H495        H  0.51218958  0.39202720  0.70509764     0.11800
H496        H  0.50247708  0.52653811  0.81646765     0.11800
C497        C  0.22175818  0.76338091  0.00857428    -0.14300
C498        C  0.25897104  0.78404042  0.98589285    -0.15800
C499        C  0.28771304  0.01640239  0.77586255    -0.14300
C500        C  0.26036688  0.03615516  0.74012913    -0.15800
C501        C  0.25531704  0.68479341  0.78969648    -0.14300
C502        C  0.24597406  0.74091082  0.79721537     0.07800
C503        C  0.19891440  0.76493727  0.77446583    -0.14300
C504        C  0.16476205  0.73493501  0.74105015    -0.14300
C505        C  0.17669929  0.67981474  0.72916786     0.07800
C506        C  0.22070983  0.65456452  0.75679239    -0.14300
H507        H  0.29075129  0.66465441  0.80721596     0.11800
H508        H  0.18961265  0.80778751  0.78049188     0.11800
H509        H  0.12950747  0.75591647  0.72456408     0.11800
H510        H  0.23003457  0.61173029  0.75067953     0.11800
C511        C  0.26031761  0.04146020  0.98835581    -0.14300
C512        C  0.29010845  0.99984717  0.01522309     0.07800
C513        C  0.27848054  0.98908572  0.06938196    -0.14300
C514        C  0.23659458  0.01731396  0.09534593    -0.14300
C515        C  0.20561473  0.05751850  0.06810362     0.07800
C516        C  0.21866414  0.07044031  0.01481709    -0.14300
H517        H  0.26849618  0.05085623  0.94666844     0.11800
H518        H  0.30070163  0.95758234  0.09139478     0.11800
H519        H  0.22777162  0.00709877  0.13671556     0.11800
H520        H  0.19526363  0.10126052  0.99306781     0.11800
C521        C  0.44630038  0.74728356  0.73335293    -0.14300
C522        C  0.47195687  0.71321855  0.70873615    -0.15800
C523        C  0.48373995  0.77068477  0.06700358    -0.14300
C524        C  0.49403076  0.77730942  0.01190268     0.07800
C525        C  0.54028024  0.75074351  0.99028441    -0.14300
C526        C  0.57299351  0.71539595  0.02186630    -0.14300
C527        C  0.56005597  0.70537752  0.07577166     0.07800
C528        C  0.51626017  0.73511133  0.09844566    -0.14300
H529        H  0.44898987  0.79064732  0.08513338     0.11800
H530        H  0.54982855  0.75521496  0.94805010     0.11800
H531        H  0.60605392  0.69312077  0.00313402     0.11800
H532        H  0.50556886  0.72891661  0.14018282     0.11800
C533        C  0.52519935  0.99588898  0.77396684    -0.14300
C534        C  0.48207715  0.96732308  0.75041208     0.07800
C535        C  0.47011636  0.97584431  0.69558091    -0.14300
C536        C  0.50125832  0.01093676  0.66484011    -0.14300
C537        C  0.54433183  0.03907545  0.68849277     0.07800
C538        C  0.55588991  0.03149642  0.74326672    -0.14300
H539        H  0.53500475  0.99109282  0.81622696     0.11800
H540        H  0.43674846  0.95523295  0.67630801     0.11800
H541        H  0.49259961  0.01529456  0.62230789     0.11800
H542        H  0.58998208  0.05163748  0.76185426     0.11800
C543        C  0.53801327  0.02646319  0.00151823    -0.14300
C544        C  0.50695114  0.00149999  0.97371078    -0.15800
C545        C  0.98010130  0.18702199  0.71508085    -0.14300
C546        C  0.95483132  0.21207994  0.74842852    -0.15800
C547        C  0.78024313  0.21169431  0.02877799    -0.14300
C548        C  0.80123745  0.23179442  0.99082765    -0.15800
C549        C  0.73176496  0.25939351  0.69755692    -0.14300
C550        C  0.75758472  0.24368439  0.74615411     0.07800
C551        C  0.74490615  0.19284809  0.76848055    -0.14300
C552        C  0.70930996  0.15778004  0.74155471    -0.14300
C553        C  0.68469950  0.17330156  0.69248304     0.07800
C554        C  0.69568392  0.22475199  0.67120718    -0.14300
H555        H  0.74055679  0.29810684  0.67901297     0.11800
H556        H  0.76440188  0.17915815  0.80540977     0.11800
H557        H  0.70255125  0.11764961  0.75801044     0.11800
H558        H  0.67827989  0.23703270  0.63283948     0.11800
C559        C  0.03933538  0.23546612  0.96299214    -0.14300
C560        C  0.99999267  0.27015999  0.98675090     0.07800
C561        C  0.99723043  0.27223663  0.04322490    -0.14300
C562        C  0.02886349  0.23686235  0.07491607    -0.14300
C563        C  0.06438489  0.19881361  0.05106845     0.07800
C564        C  0.07140966  0.19997771  0.99508063    -0.14300
H565        H  0.04263986  0.23296799  0.91963432     0.11800
H566        H  0.96793260  0.29878685  0.06303821     0.11800
H567        H  0.02317237  0.23682905  0.11812224     0.11800
H568        H  0.09868611  0.17080672  0.97593275     0.11800
C569        C  0.76747802  0.47207592  0.76417789    -0.14300
C570        C  0.73738859  0.49555768  0.73426203    -0.15800
C571        C  0.70502036  0.48705954  0.97334691    -0.14300
C572        C  0.75885406  0.50400663  0.96839797     0.07800
C573        C  0.77395471  0.55082550  0.99726811    -0.14300
C574        C  0.73714067  0.57759372  0.03248957    -0.14300
C575        C  0.68430053  0.55823325  0.03979690     0.07800
C576        C  0.66849086  0.51369048  0.00807217    -0.14300
H577        H  0.69155641  0.45145251  0.95176588     0.11800
H578        H  0.81512641  0.56475110  0.99521917     0.11800
H579        H  0.75112852  0.61149402  0.05623699     0.11800
H580        H  0.62805788  0.49812147  0.01122583     0.11800
C581        C  0.03382136  0.45128469  0.75272331    -0.14300
C582        C  0.97939974  0.44802536  0.73606002     0.07800
C583        C  0.96033604  0.48253809  0.69450964    -0.14300
C584        C  0.99446124  0.52182569  0.67265987    -0.14300
C585        C  0.04751186  0.52737801  0.69266399     0.07800
C586        C  0.06727835  0.49067926  0.73166280    -0.14300
H587        H  0.04971605  0.42531740  0.78473876     0.11800
H588        H  0.91841324  0.48173261  0.68172427     0.11800
H589        H  0.97845048  0.54994487  0.64255121     0.11800
H590        H  0.10820013  0.49359105  0.74707120     0.11800
C591        C  0.00058929  0.51816019  0.01488721    -0.14300
C592        C  0.97136784  0.48257090  0.99999952    -0.15800
C593        C  0.72434205  0.03299287  0.27324724    -0.14300
C594        C  0.75960858  0.00740357  0.29583094    -0.15800
C595        C  0.98681000  0.76350627  0.26849746    -0.14300
C596        C  0.01809994  0.73523078  0.24418075    -0.15800
C597        C  0.74002558  0.64000816  0.23252328    -0.14300
C598        C  0.70506985  0.66555802  0.19447444     0.07800
C599        C  0.70555993  0.72237355  0.18999537    -0.14300
C600        C  0.73797250  0.75315325  0.22467205    -0.14300
C601        C  0.77161473  0.72790495  0.26412720     0.07800
C602        C  0.77346708  0.67078569  0.26649921    -0.14300
H603        H  0.74043325  0.59615045  0.23683914     0.11800
H604        H  0.67872899  0.74318985  0.16162814     0.11800
H605        H  0.73608500  0.79706637  0.22103131     0.11800
H606        H  0.79925552  0.65003281  0.29584130     0.11800
C607        C  0.95815430  0.99621242  0.19559537    -0.14300
C608        C  0.97810504  0.97075504  0.24257941     0.07800
C609        C  0.03124092  0.98159069  0.25955013    -0.14300
C610        C  0.06321023  0.01768745  0.23087497    -0.14300
C611        C  0.04266634  0.04542024  0.18517891     0.07800
C612        C  0.98992886  0.03283813  0.16718709    -0.14300
H613        H  0.91743532  0.98873374  0.18134212     0.11800
H614        H  0.04808087  0.96243388  0.29547253     0.11800
H615        H  0.10421335  0.02433569  0.24481508     0.11800
H616        H  0.97286063  0.05006415  0.13065754     0.11800
C617        C  0.76158708  0.75393084  0.50735666    -0.14300
C618        C  0.72945331  0.72856370  0.53173094    -0.15800
C619        C  0.00941934  0.75260347  0.51866845    -0.14300
C620        C  0.96969855  0.72179694  0.49310152     0.07800
C621        C  0.96700506  0.66601364  0.50512729    -0.14300
C622        C  0.00261519  0.64198492  0.54321553    -0.14300
C623        C  0.04231878  0.67309128  0.56938480     0.07800
C624        C  0.04562478  0.72855538  0.55545899    -0.14300
H625        H  0.01282426  0.79554207  0.50994454     0.11800
H626        H  0.93633833  0.64133309  0.48631634     0.11800
H627        H  0.99794952  0.59954400  0.55272293     0.11800
H628        H  0.07646506  0.75410743  0.57241464     0.11800
C629        C  0.75986751  0.03612203  0.47947686    -0.14300
C630        C  0.75279157  0.98034724  0.47020490     0.07800
C631        C  0.70791650  0.95508508  0.49252148    -0.14300
C632        C  0.67328233  0.98380953  0.52694222    -0.14300
C633        C  0.68301951  0.03857569  0.54036451     0.07800
C634        C  0.72493137  0.06500559  0.51355643    -0.14300
H635        H  0.79353401  0.05704323  0.46198647     0.11800
H636        H  0.70063891  0.91241033  0.48510471     0.11800
H637        H  0.63941788  0.96223205  0.54263620     0.11800
H638        H  0.73210708  0.10772618  0.52084718     0.11800
C639        C  0.96330288  0.94825729  0.52086452    -0.14300
C640        C  0.99275425  0.97712583  0.54562557    -0.15800
C641        C  0.77048285  0.99329443  0.90822449    -0.14300
C642        C  0.79054013  0.94310267  0.92845404     0.07800
C643        C  0.77491483  0.92704124  0.98033994    -0.14300
C644        C  0.74414164  0.96200482  0.01252007    -0.14300
C645        C  0.72768123  0.01363944  0.99361634     0.07800
C646        C  0.73976620  0.02841251  0.94057990    -0.14300
H647        H  0.77954709  0.00578502  0.86755316     0.11800
H648        H  0.78538117  0.88752130  0.99664750     0.11800
H649        H  0.73432452  0.94891579  0.05283743     0.11800
H650        H  0.72691286  0.06767248  0.92458941     0.11800
C651        C  0.98051899  0.96523583  0.82856639    -0.14300
C652        C  0.94940673  0.92495763  0.80296847     0.07800
C653        C  0.96499464  0.90708270  0.75171029    -0.14300
C654        C  0.00866364  0.93083661  0.72564116    -0.14300
C655        C  0.03802703  0.97306334  0.75020566     0.07800
C656        C  0.02396036  0.98920332  0.80241748    -0.14300
H657        H  0.97100331  0.97894057  0.86887733     0.11800
H658        H  0.94217009  0.87635928  0.73078904     0.11800
H659        H  0.01817003  0.91729797  0.68523411     0.11800
H660        H  0.04556962  0.02136476  0.82254309     0.11800
C661        C  0.79383045  0.76327247  0.76577627    -0.14300
C662        C  0.78411669  0.81922091  0.77173364     0.07800
C663        C  0.73586441  0.84212425  0.74914892    -0.14300
C664        C  0.69591949  0.80912575  0.72637383    -0.14300
C665        C  0.70350015  0.75247501  0.72533720     0.07800
C666        C  0.75408683  0.73038019  0.74292983    -0.14300
H667        H  0.83016676  0.74428106  0.78260668     0.11800
H668        H  0.72750480  0.88546198  0.75218083     0.11800
H669        H  0.65821941  0.82763621  0.71217241     0.11800
H670        H  0.76223515  0.68688835  0.74128103     0.11800
C671        C  0.97265371  0.77418344  0.88692551    -0.14300
C672        C  0.91913274  0.78016291  0.90535339     0.07800
C673        C  0.90417185  0.75038381  0.95107679    -0.14300
C674        C  0.94267847  0.72017034  0.98081433    -0.14300
C675        C  0.99718832  0.71792223  0.96516539     0.07800
C676        C  0.01131196  0.74307839  0.91648776    -0.14300
H677        H  0.98561409  0.79675467  0.85212990     0.11800
H678        H  0.86305780  0.75312394  0.96583729     0.11800
H679        H  0.93028859  0.70069114  0.01762179     0.11800
H680        H  0.05309150  0.74217139  0.90344319     0.11800
loop_ 
_geom_bond_atom_site_label_1 
_geom_bond_atom_site_label_2 
_geom_bond_distance 
_geom_bond_site_symmetry_2 
_ccdc_geom_bond_type 
C1            C2   1.529       .  S
C1            C7   1.539       .  S
C1            C5   1.515       .  S
C1          C642   1.519       .  S
C2            H9   1.086       .  S
C2            C3   1.368       .  D
C3            C4   1.560       .  S
C3          C652   1.498       .  S
C4            C8   1.551       .  S
C4            C6   1.567       .  S
C4           H10   1.109       .  S
C5           H11   1.087       .  S
C5            C6   1.360       .  D
C6          C662   1.498       .  S
C7           H12   1.082       .  S
C7            C8   1.368       .  D
C8          C672   1.499       .  S
O13          C21   1.267       .  A
O13         Co33   1.966       .  S
O14          C22   1.252       .  A
O14         Co34   1.964       .  S
O15          C23   1.271       .  A
O15         Co35   2.019       .  S
O16          C24   1.294       .  A
O16         Co36   2.088       .  S
O17          C23   1.254       .  A
O17         Co34   1.941       .  S
O18          C24   1.256       .  A
O18         Co33   1.874       .  S
O19          C22   1.267       .  A
O19         Co36   2.040       .  S
O20          C21   1.277       .  A
O20         Co35   2.021       .  S
C21         C630   1.476       .  S
C22         C601   1.495       .  S
C23         C594   1.420   1_565  S
C24         C617   1.408       .  S
O25          C38   1.294       .  A
O25         Co33   2.092       .  S
O26          C39   1.275       .  A
O26         Co34   2.039       .  S
O27          C40   1.253       .  A
O27         Co35   1.967       .  S
O28          C41   1.261       .  A
O28         Co36   1.948       .  S
O29          C41   1.277       .  A
O29         Co34   2.019       .  S
O30          C40   1.253       .  A
O30         Co33   1.986       .  S
O31          C38   1.268       .  A
O31         Co36   1.918       .  S
O32          C39   1.258       .  A
O32         Co35   1.962       .  S
Co33         O37   1.992       .  S
Co34         O37   2.020       .  S
Co35         O37   2.031       .  S
Co36         O37   2.028       .  S
C38         C620   1.482       .  S
C39         C608   1.488       .  S
C40         C639   1.416       .  S
C41         C595   1.416       .  S
O42          C50   1.243       .  A
O42         Co62   1.937       .  S
O43          C51   1.259       .  A
O43         Co63   1.898       .  S
O44          C52   1.285       .  A
O44         Co64   2.032       .  S
O45          C53   1.273       .  A
O45         Co65   2.050       .  S
O46          C52   1.275       .  A
O46         Co63   1.979       .  S
O47          C53   1.254       .  A
O47         Co62   1.955       .  S
O48          C51   1.290       .  A
O48         Co65   2.093       .  S
O49          C50   1.267       .  A
O49         Co64   2.034       .  S
C50         C592   1.427       .  S
C51         C546   1.430       .  S
C52         C560   1.487       .  S
C53         C582   1.481       .  S
O54          C67   1.265       .  A
O54         Co62   1.990       .  S
O55          C68   1.250       .  A
O55         Co63   1.985       .  S
O56          C69   1.263       .  A
O56         Co64   1.963       .  S
O57          C70   1.271       .  A
O57         Co65   1.898       .  S
O58          C70   1.305       .  A
O58         Co63   2.132       .  S
O59          C69   1.287       .  A
O59         Co62   2.086       .  S
O60          C67   1.256       .  A
O60         Co65   1.942       .  S
O61          C68   1.246       .  A
O61         Co64   1.951       .  S
Co62         O66   2.016       .  S
Co63         O66   2.024       .  S
Co64         O66   2.026       .  S
Co65         O66   2.022       .  S
C67         C569   1.401       .  S
C68         C548   1.413       .  S
C69         C572   1.508       .  S
C70         C550   1.498       .  S
O71          C79   1.267   1_554  A
O71         Co91   1.907   1_554  S
O72          C80   1.263       .  A
O72         Co92   1.971       .  S
O73          C81   1.257       .  A
O73         Co93   2.008       .  S
O74          C82   1.278       .  A
O74         Co94   2.034       .  S
O75          C81   1.253       .  A
O75         Co92   1.968       .  S
O76          C82   1.258       .  A
O76         Co91   1.958       .  S
O77          C80   1.273       .  A
O77         Co94   2.027       .  S
O78          C79   1.293       .  A
O78         Co93   2.098       .  S
C79         C512   1.485   1_556  S
C80         C502   1.489       .  S
C81         C499   1.433   1_565  S
C82         C498   1.434       .  S
O83          C96   1.270       .  A
O83         Co91   2.033       .  S
O84          C97   1.284       .  A
O84         Co92   2.045       .  S
O85          C98   1.264   1_545  A
O85         Co93   1.905   1_545  S
O86          C99   1.262       .  A
O86         Co94   1.964       .  S
O87          C99   1.270       .  A
O87         Co92   2.023       .  S
O88          C98   1.289       .  A
O88         Co91   2.086       .  S
O89          C96   1.257       .  A
O89         Co94   1.979       .  S
O90          C97   1.268       .  A
O90         Co93   1.961       .  S
Co91         O95   2.019       .  S
Co92         O95   2.031       .  S
Co93         O95   2.025       .  S
Co94         O95   2.037       .  S
C96         C524   1.497   1_556  S
C97         C534   1.486       .  S
C98         C544   1.435   1_565  S
C99         C521   1.438       .  S
C100        C101   1.536       .  S
C100        C106   1.534       .  S
C100        C104   1.517       .  S
C100        C458   1.523       .  S
C101        H108   1.084       .  S
C101        C102   1.370       .  D
C102        C103   1.543       .  S
C102        C478   1.483       .  S
C103        C107   1.567       .  S
C103        C105   1.558       .  S
C103        H109   1.110       .  S
C104        H110   1.088       .  S
C104        C105   1.358       .  D
C105        C468   1.493       .  S
C106        H111   1.085       .  S
C106        C107   1.372       .  D
C107        C488   1.513       .  S
C112        C113   1.532       .  S
C112        C118   1.529       .  S
C112        C116   1.535       .  S
C112        C431   1.518       .  S
C113        H120   1.088       .  S
C113        C114   1.362       .  D
C114        C115   1.550       .  S
C114        C438   1.484       .  S
C115        C119   1.551       .  S
C115        C117   1.554       .  S
C115        H121   1.110       .  S
C116        H122   1.078       .  S
C116        C117   1.361       .  D
C117        C448   1.490       .  S
C118        H123   1.087       .  S
C118        C119   1.363       .  D
C119        C418   1.480       .  S
C124        C125   1.546       .  S
C124        C130   1.529       .  S
C124        C128   1.530       .  S
C124        C391   1.530       .  S
C125        H132   1.084       .  S
C125        C126   1.384       .  D
C126        C127   1.553       .  S
C126        C408   1.502       .  S
C127        C131   1.537       .  S
C127        C129   1.549       .  S
C127        H133   1.111       .  S
C128        H134   1.087       .  S
C128        C129   1.361       .  D
C129        C398   1.489       .  S
C130        H135   1.087       .  S
C130        C131   1.355       .  D
C131        C381   1.467       .  S
O136        C144   1.254       .  A
O136       Co156   1.983       .  S
O137        C145   1.255       .  A
O137       Co157   2.016       .  S
O138        C146   1.264       .  A
O138       Co158   1.949       .  S
O139        C147   1.292       .  A
O139       Co159   2.043       .  S
O140        C146   1.287       .  A
O140       Co157   2.061       .  S
O141        C147   1.276       .  A
O141       Co156   1.921       .  S
O142        C145   1.248       .  A
O142       Co159   1.957       .  S
O143        C144   1.263       .  A
O143       Co158   1.996       .  S
C144        C500   1.433       .  S
C145        C376   1.437       .  S
C146        C441   1.485   1_545  S
C147        C461   1.470       .  S
O148        C161   1.244       .  A
O148       Co156   1.956       .  S
O149        C162   1.258       .  A
O149       Co157   1.966       .  S
O150        C163   1.253   1_565  A
O150       Co158   1.964   1_565  S
O151        C164   1.299       .  A
O151       Co159   2.091       .  S
O152        C164   1.276       .  A
O152       Co157   1.907       .  S
O153        C163   1.267       .  A
O153       Co156   2.008       .  S
O154        C161   1.251       .  A
O154       Co159   1.987       .  S
O155        C162   1.261   1_565  A
O155       Co158   1.986   1_565  S
Co156       O160   1.952       .  S
Co157       O160   1.974       .  S
Co158       O160   2.070       .  S
Co159       O160   2.190       .  S
C161        C545   1.426   1_455  S
C162        C640   1.414   1_445  S
C163        C655   1.490   1_545  S
C164        C401   1.487       .  S
O165        C173   1.262       .  A
O165       Co185   1.971       .  S
O166        C174   1.268       .  A
O166       Co186   1.898       .  S
O167        C175   1.277       .  A
O167       Co187   2.043       .  S
O168        C176   1.255       .  A
O168       Co188   1.994       .  S
O169        C175   1.251       .  A
O169       Co186   1.942       .  S
O170        C176   1.249       .  A
O170       Co185   1.959       .  S
O171        C174   1.294       .  A
O171       Co188   2.105       .  S
O172        C173   1.274   1_556  A
O172       Co187   2.038   1_556  S
C173        C675   1.490   1_454  S
C174        C388   1.485       .  S
C175        C591   1.428       .  S
C176        C596   1.416       .  S
O177        C190   1.286       .  A
O177       Co185   2.046       .  S
O178        C191   1.272       .  A
O178       Co186   2.050       .  S
O179        C192   1.251       .  A
O179       Co187   1.944       .  S
O180        C193   1.264       .  A
O180       Co188   1.909       .  S
O181        C193   1.284       .  A
O181       Co186   2.067       .  S
O182        C192   1.270       .  A
O182       Co185   2.025       .  S
O183        C190   1.270       .  A
O183       Co188   1.963       .  S
O184        C191   1.246       .  A
O184       Co187   1.952       .  S
Co185       O189   2.021       .  S
Co186       O189   2.017       .  S
Co187       O189   2.028       .  S
Co188       O189   2.023       .  S
C190        C421   1.488       .  S
C191        C471   1.489       .  S
C192        C497   1.432       .  S
C193        C373   1.426       .  S
O194        C202   1.275       .  A
O194       Co214   2.022       .  S
O195        C203   1.296       .  A
O195       Co215   2.095       .  S
O196        C204   1.252       .  A
O196       Co216   1.967       .  S
O197        C205   1.267       .  A
O197       Co217   1.974       .  S
O198        C204   1.251       .  A
O198       Co215   1.990       .  S
O199        C205   1.275       .  A
O199       Co214   2.019       .  S
O200        C203   1.266       .  A
O200       Co217   1.882       .  S
O201        C202   1.263       .  A
O201       Co216   1.955       .  S
C202        C645   1.472   1_554  S
C203        C428   1.466       .  S
C204        C593   1.421       .  S
C205        C543   1.434       .  S
O206        C219   1.261       .  A
O206       Co214   1.986       .  S
O207        C220   1.269       .  A
O207       Co215   1.959       .  S
O208        C221   1.265       .  A
O208       Co216   1.998       .  S
O209        C222   1.292       .  A
O209       Co217   2.102       .  S
O210        C222   1.258       .  A
O210       Co215   1.879       .  S
O211        C221   1.256       .  A
O211       Co214   1.952       .  S
O212        C219   1.263       .  A
O212       Co217   1.989       .  S
O213        C220   1.282       .  A
O213       Co216   2.035       .  S
Co214       O218   2.023       .  S
Co215       O218   1.994       .  S
Co216       O218   2.023       .  S
Co217       O218   1.984       .  S
C219        C481   1.479       .  S
C220        C378   1.478       .  S
C221        C547   1.410       .  S
C222        C371   1.417       .  S
C223        C224   1.537       .  S
C223        C229   1.546       .  S
C223        C227   1.528       .  S
C223        C362   1.540       .  S
C224        H231   1.086       .  S
C224        C225   1.365       .  D
C225        C226   1.555       .  S
C225        C598   1.495       .  S
C226        C230   1.560       .  S
C226        C228   1.558       .  S
C226        H232   1.110       .  S
C227        H233   1.087       .  S
C227        C228   1.363       .  D
C228        C527   1.501       .  S
C229        H234   1.084       .  S
C229        C230   1.380       .  D
C230        C575   1.517       .  S
C235        C236   1.533       .  S
C235        C241   1.542       .  S
C235        C239   1.536       .  S
C235        C505   1.538       .  S
C236        H243   1.085       .  S
C236        C237   1.370       .  D
C237        C238   1.539       .  S
C237        C585   1.483       .  S
C238        C242   1.548       .  S
C238        C240   1.541       .  S
C238        H244   1.108       .  S
C239        H245   1.086       .  S
C239        C240   1.365       .  D
C240        C352   1.484       .  S
C241        H246   1.078       .  S
C241        C242   1.374       .  D
C242        C623   1.504       .  S
O247        C255   1.274       .  A
O247       Co267   1.935       .  S
O248        C256   1.289       .  A
O248       Co268   2.036       .  S
O249        C257   1.252       .  A
O249       Co269   1.978       .  S
O250        C258   1.255       .  A
O250       Co270   1.964       .  S
O251        C257   1.246       .  A
O251       Co268   1.962       .  S
O252        C258   1.259       .  A
O252       Co267   1.985       .  S
O253        C256   1.280       .  A
O253       Co270   1.982       .  S
O254        C255   1.294       .  A
O254       Co269   2.087       .  S
C255        C340   1.488       .  S
C256        C365   1.494       .  S
C257        C372   1.418       .  S
C258        C350   1.418       .  S
O259        C272   1.272       .  A
O259       Co267   2.003       .  S
O260        C273   1.282       .  A
O260       Co268   1.898       .  S
O261        C274   1.268       .  A
O261       Co269   1.905       .  S
O262        C275   1.244       .  A
O262       Co270   1.956       .  S
O263        C275   1.254       .  A
O263       Co268   2.011       .  S
O264        C274   1.296       .  A
O264       Co267   2.077       .  S
O265        C272   1.265       .  A
O265       Co270   1.982       .  S
O266        C273   1.309       .  A
O266       Co269   2.107       .  S
Co267       O271   2.022       .  S
Co268       O271   1.889       .  S
Co269       O271   2.077       .  S
Co270       O271   2.046       .  S
C272        C355   1.479       .  S
C273        C330   1.490       .  S
C274        C375   1.437       .  S
C275        C374   1.422       .  S
O276        C284   1.277       .  A
O276       Co296   2.039       .  S
O277        C285   1.280       .  A
O277       Co297   2.067       .  S
O278        C286   1.239       .  A
O278       Co298   1.938       .  S
O279        C287   1.237       .  A
O279       Co299   1.942       .  S
O280        C286   1.242       .  A
O280       Co297   1.956       .  S
O281        C287   1.242       .  A
O281       Co296   1.967       .  S
O282        C285   1.253       .  A
O282       Co299   1.947       .  S
O283        C284   1.254       .  A
O283       Co298   1.955       .  S
C284        C665   1.495       .  S
C285        C411   1.496       .  S
C286        C570   1.399       .  S
C287        C618   1.408       .  S
O288        C301   1.274       .  A
O288       Co296   1.898       .  S
O289        C302   1.278       .  A
O289       Co297   1.915       .  S
O290        C303   1.255       .  A
O290       Co298   1.989       .  S
O291        C304   1.251       .  A
O291       Co299   1.969       .  S
O292        C304   1.248       .  A
O292       Co297   1.961       .  S
O293        C303   1.251       .  A
O293       Co296   1.976       .  S
O294        C301   1.301       .  A
O294       Co299   2.098       .  S
O295        C302   1.303       .  A
O295       Co298   2.100       .  S
Co296       O300   1.973       .  S
Co297       O300   1.978       .  S
Co298       O300   2.171       .  S
Co299       O300   2.164       .  S
C301        C451   1.494       .  S
C302        C491   1.505       .  S
C303        C522   1.435       .  S
C304        C349   1.416       .  S
C305        C306   1.530       .  S
C305        C311   1.533       .  S
C305        C309   1.538       .  S
C305        C633   1.527       .  S
C306        H313   1.086       .  S
C306        C307   1.372       .  D
C307        C308   1.551       .  S
C307        C343   1.499       .  S
C308        C312   1.551       .  S
C308        C310   1.552       .  S
C308        H314   1.110       .  S
C309        H315   1.086       .  S
C309        C310   1.364       .  D
C310        C553   1.490       .  S
C311        H316   1.082   1_545  S
C311        C312   1.359       .  D
C312        C537   1.479       .  S
C317        C318   1.546       .  S
C317        C323   1.527       .  S
C317        C321   1.536       .  S
C317        C611   1.536       .  S
C318        H325   1.085       .  S
C318        C319   1.379       .  D
C319        C320   1.552       .  S
C319        C333   1.508       .  S
C320        C324   1.545       .  S
C320        C322   1.541       .  S
C320        H326   1.108       .  S
C321        H327   1.083       .  S
C321        C322   1.364       .  D
C322        C563   1.482       .  S
C323        H328   1.087       .  S
C323        C324   1.364       .  D
C324        C515   1.485       .  S
C329        C330   1.405       .  A
C329        C334   1.402       .  A
C329        H335   1.083       .  S
C330        C331   1.404       .  A
C331        C332   1.405       .  A
C331        H336   1.084       .  S
C332        C333   1.411       .  A
C332        H337   1.079       .  S
C333        C334   1.411       .  A
C334        H338   1.083       .  S
C339        C340   1.404       .  A
C339        C344   1.394       .  A
C339        H345   1.083       .  S
C340        C341   1.408       .  A
C341        C342   1.411       .  A
C341        H346   1.084       .  S
C342        C343   1.410       .  A
C342        H347   1.081       .  S
C343        C344   1.407       .  A
C344        H348   1.083       .  S
C349        C350   1.197       .  T
C351        C352   1.403       .  A
C351        C356   1.402       .  A
C351        H357   1.083       .  S
C352        C353   1.406       .  A
C353        C354   1.396       .  A
C353        H358   1.084       .  S
C354        C355   1.403       .  A
C354        H359   1.083       .  S
C355        C356   1.409       .  A
C356        H360   1.083       .  S
C361        C362   1.410       .  A
C361        C366   1.397       .  A
C361        H367   1.084       .  S
C362        C363   1.413       .  A
C363        C364   1.411       .  A
C363        H368   1.080       .  S
C364        C365   1.409       .  A
C364        H369   1.082       .  S
C365        C366   1.404       .  A
C366        H370   1.082       .  S
C371        C372   1.196       .  T
C373        C374   1.200       .  T
C375        C376   1.207       .  T
C377        C378   1.409       .  A
C377        C382   1.398       .  A
C377        H383   1.083       .  S
C378        C379   1.405       .  A
C379        C380   1.396       .  A
C379        H384   1.082       .  S
C380        C381   1.401       .  A
C380        H385   1.085       .  S
C381        C382   1.399       .  A
C382        H386   1.082       .  S
C387        C388   1.412   1_655  A
C387        C392   1.412       .  A
C387        H393   1.083       .  S
C388        C389   1.399       .  A
C389        C390   1.387   1_455  A
C389        H394   1.084       .  S
C390        C391   1.410       .  A
C390        H395   1.083       .  S
C391        C392   1.409       .  A
C392        H396   1.081       .  S
C397        C398   1.405       .  A
C397        C402   1.408       .  A
C397        H403   1.083       .  S
C398        C399   1.405       .  A
C399        C400   1.396   1_655  A
C399        H404   1.084       .  S
C400        C401   1.405       .  A
C400        H405   1.083       .  S
C401        C402   1.409   1_455  A
C402        H406   1.084       .  S
C407        C408   1.414       .  A
C407        C412   1.418       .  A
C407        H413   1.083       .  S
C408        C409   1.400       .  A
C409        C410   1.396       .  A
C409        H414   1.083       .  S
C410        C411   1.411       .  A
C410        H415   1.085       .  S
C411        C412   1.407       .  A
C412        H416   1.082       .  S
C417        C418   1.405       .  A
C417        C422   1.399       .  A
C417        H423   1.084       .  S
C418        C419   1.400       .  A
C419        C420   1.403       .  A
C419        H424   1.083       .  S
C420        C421   1.412       .  A
C420        H425   1.083       .  S
C421        C422   1.406       .  A
C422        H426   1.083       .  S
C427        C428   1.402       .  A
C427        C432   1.392   1_545  A
C427        H433   1.082       .  S
C428        C429   1.400   1_545  A
C429        C430   1.391       .  A
C429        H434   1.083       .  S
C430        C431   1.410       .  A
C430        H435   1.070       .  S
C431        C432   1.408       .  A
C432        H436   1.083       .  S
C437        C438   1.397       .  A
C437        C442   1.398       .  A
C437        H443   1.084       .  S
C438        C439   1.411       .  A
C439        C440   1.405       .  A
C439        H444   1.083       .  S
C440        C441   1.401       .  A
C440        H445   1.085   1_565  S
C441        C442   1.412       .  A
C442        H446   1.082       .  S
C447        C448   1.403       .  A
C447        C452   1.408       .  A
C447        H453   1.083       .  S
C448        C449   1.407       .  A
C449        C450   1.400       .  A
C449        H454   1.084       .  S
C450        C451   1.405       .  A
C450        H455   1.083       .  S
C451        C452   1.412       .  A
C452        H456   1.083       .  S
C457        C458   1.415       .  A
C457        C462   1.401       .  A
C457        H463   1.077       .  S
C458        C459   1.405       .  A
C459        C460   1.391       .  A
C459        H464   1.084       .  S
C460        C461   1.403       .  A
C460        H465   1.081       .  S
C461        C462   1.400       .  A
C462        H466   1.084       .  S
C467        C468   1.416       .  A
C467        C472   1.401   1_556  A
C467        H473   1.083       .  S
C468        C469   1.396       .  A
C469        C470   1.402   1_556  A
C469        H474   1.083       .  S
C470        C471   1.418       .  A
C470        H475   1.083       .  S
C471        C472   1.398       .  A
C472        H476   1.083       .  S
C477        C478   1.404       .  A
C477        C482   1.390   1_556  A
C477        H483   1.083       .  S
C478        C479   1.404       .  A
C479        C480   1.404   1_556  A
C479        H484   1.084       .  S
C480        C481   1.408       .  A
C480        H485   1.082       .  S
C481        C482   1.404       .  A
C482        H486   1.085       .  S
C487        C488   1.406       .  A
C487        C492   1.412       .  A
C487        H493   1.083       .  S
C488        C489   1.415       .  A
C489        C490   1.406       .  A
C489        H494   1.081       .  S
C490        C491   1.405       .  A
C490        H495   1.083       .  S
C491        C492   1.414       .  A
C492        H496   1.082       .  S
C497        C498   1.205   1_554  T
C499        C500   1.205       .  T
C501        C502   1.405       .  A
C501        C506   1.402       .  A
C501        H507   1.083       .  S
C502        C503   1.406       .  A
C503        C504   1.400       .  A
C503        H508   1.083       .  S
C504        C505   1.411       .  A
C504        H509   1.079       .  S
C505        C506   1.412       .  A
C506        H510   1.083       .  S
C511        C512   1.410   1_546  A
C511        C516   1.406   1_556  A
C511        H517   1.082       .  S
C512        C513   1.404       .  A
C513        C514   1.395   1_565  A
C513        H518   1.084       .  S
C514        C515   1.405       .  A
C514        H519   1.083       .  S
C515        C516   1.403       .  A
C516        H520   1.083   1_554  S
C521        C522   1.208       .  T
C523        C524   1.404       .  A
C523        C528   1.405       .  A
C523        H529   1.081       .  S
C524        C525   1.413   1_554  A
C525        C526   1.406   1_556  A
C525        H530   1.083       .  S
C526        C527   1.402       .  A
C526        H531   1.081       .  S
C527        C528   1.413       .  A
C528        H532   1.084       .  S
C533        C534   1.412       .  A
C533        C538   1.401   1_565  A
C533        H539   1.081       .  S
C534        C535   1.405       .  A
C535        C536   1.400   1_565  A
C535        H540   1.085       .  S
C536        C537   1.406       .  A
C536        H541   1.080       .  S
C537        C538   1.399       .  A
C538        H542   1.086       .  S
C543        C544   1.206   1_554  T
C545        C546   1.203       .  T
C547        C548   1.193   1_554  T
C549        C550   1.409       .  A
C549        C554   1.404       .  A
C549        H555   1.084       .  S
C550        C551   1.410       .  A
C551        C552   1.409       .  A
C551        H556   1.082       .  S
C552        C553   1.405       .  A
C552        H557   1.084       .  S
C553        C554   1.403       .  A
C554        H558   1.082       .  S
C559        C560   1.411   1_455  A
C559        C564   1.407       .  A
C559        H565   1.082       .  S
C560        C561   1.405   1_556  A
C561        C562   1.394   1_655  A
C561        H566   1.085       .  S
C562        C563   1.402       .  A
C562        H567   1.083       .  S
C563        C564   1.403   1_554  A
C564        H568   1.085       .  S
C569        C570   1.186       .  T
C571        C572   1.410       .  A
C571        C576   1.405   1_556  A
C571        H577   1.083       .  S
C572        C573   1.411       .  A
C573        C574   1.418   1_556  A
C573        H578   1.082       .  S
C574        C575   1.413       .  A
C574        H579   1.082       .  S
C575        C576   1.409       .  A
C576        H580   1.082       .  S
C581        C582   1.407   1_455  A
C581        C586   1.393       .  A
C581        H587   1.084       .  S
C582        C583   1.406       .  A
C583        C584   1.408       .  A
C583        H588   1.081       .  S
C584        C585   1.407   1_655  A
C584        H589   1.084       .  S
C585        C586   1.400       .  A
C586        H590   1.082       .  S
C591        C592   1.203   1_454  T
C593        C594   1.198       .  T
C595        C596   1.195   1_655  T
C597        C598   1.411       .  A
C597        C602   1.408       .  A
C597        H603   1.083       .  S
C598        C599   1.401       .  A
C599        C600   1.403       .  A
C599        H604   1.083       .  S
C600        C601   1.413       .  A
C600        H605   1.083       .  S
C601        C602   1.404       .  A
C602        H606   1.083       .  S
C607        C608   1.404       .  A
C607        C612   1.403   1_565  A
C607        H613   1.083       .  S
C608        C609   1.406   1_655  A
C609        C610   1.400   1_565  A
C609        H614   1.084       .  S
C610        C611   1.408       .  A
C610        H615   1.084       .  S
C611        C612   1.415   1_455  A
C612        H616   1.079       .  S
C617        C618   1.191       .  T
C619        C620   1.401   1_455  A
C619        C624   1.394       .  A
C619        H625   1.082       .  S
C620        C621   1.406       .  A
C621        C622   1.406   1_655  A
C621        H626   1.084       .  S
C622        C623   1.411       .  A
C622        H627   1.078   1_455  S
C623        C624   1.410       .  A
C624        H628   1.081       .  S
C629        C630   1.404   1_545  A
C629        C634   1.396       .  A
C629        H635   1.082       .  S
C630        C631   1.402       .  A
C631        C632   1.395       .  A
C631        H636   1.083       .  S
C632        C633   1.412   1_565  A
C632        H637   1.077       .  S
C633        C634   1.408       .  A
C634        H638   1.083       .  S
C639        C640   1.194       .  T
C641        C642   1.409       .  A
C641        C646   1.395   1_565  A
C641        H647   1.082   1_565  S
C642        C643   1.408       .  A
C643        C644   1.391   1_556  A
C643        H648   1.077       .  S
C644        C645   1.403   1_564  A
C644        H649   1.083       .  S
C645        C646   1.403       .  A
C646        H650   1.083       .  S
C651        C652   1.414       .  A
C651        C656   1.401   1_655  A
C651        H657   1.082       .  S
C652        C653   1.401       .  A
C653        C654   1.402   1_655  A
C653        H658   1.082       .  S
C654        C655   1.415       .  A
C654        H659   1.083       .  S
C655        C656   1.400       .  A
C656        H660   1.083   1_565  S
C661        C662   1.398       .  A
C661        C666   1.402       .  A
C661        H667   1.083       .  S
C662        C663   1.417       .  A
C663        C664   1.406       .  A
C663        H668   1.083       .  S
C664        C665   1.400       .  A
C664        H669   1.083       .  S
C665        C666   1.416       .  A
C666        H670   1.084       .  S
C671        C672   1.408       .  A
C671        C676   1.410   1_655  A
C671        H677   1.082       .  S
C672        C673   1.408       .  A
C673        C674   1.398       .  A
C673        H678   1.084       .  S
C674        C675   1.405       .  A
C674        H679   1.082   1_556  S
C675        C676   1.408   1_655  A
C676        H680   1.085       .  S
