geometry optimzed in LAMMPS
_audit_creation_date              2020-11-30 
_audit_creation_method            'lammps2cif' 
_symmetry_space_group_name_H-M    'P1' 
_symmetry_Int_Tables_number       1 
_symmetry_cell_setting            triclinic 
loop_ 
_symmetry_equiv_pos_as_xyz 
  x,y,z 
_cell_length_a                    41.92922916131404 
_cell_length_b                    40.59137088485781 
_cell_length_c                    30.846121944490218 
_cell_angle_alpha                 90.89151647758732 
_cell_angle_beta                  89.67551028338484 
_cell_angle_gamma                 120.79770364539156 
loop_ 
_atom_site_label 
_atom_site_type_symbol 
_atom_site_fract_x 
_atom_site_fract_y 
_atom_site_fract_z 
_atom_site_charge 
C1          C  0.12515622  0.05940000  0.36741271     0.00200
C2          C  0.15531479  0.08164581  0.39235747     0.00200
C3          C  0.12617134  0.06143013  0.23068632     0.00200
C4          C  0.15550303  0.07435661  0.20361625     0.00200
O5          O  0.11268068  0.49256504  0.34102931    -0.74790
O6          O  0.03075723  0.42839258  0.25546047    -0.74820
O7          O  0.10498058  0.49040141  0.25102984    -0.74870
O8          O  0.03108096  0.41855007  0.34046745    -0.74920
O9          O  0.01390356  0.46021747  0.35568821    -0.74850
O10         O  0.09417038  0.52740207  0.28882912    -0.74830
O11         O  0.02259654  0.47708459  0.26773608    -0.74810
O12         O  0.07409336  0.50146765  0.37570404    -0.74870
Ni13       Ni  0.07175621  0.45432921  0.29798726     1.25410
Ni14       Ni  0.05085431  0.49303789  0.32109969     1.25360
C15         C  0.10665311  0.51478542  0.36707516     0.87390
C16         C  0.01198499  0.44492920  0.24812795     0.87320
C17         C  0.10974734  0.52392889  0.25692531     0.87350
C18         C  0.00596244  0.42621811  0.35486342     0.87520
C19         C  0.47448620  0.42648745  0.22270557     0.00200
C20         C  0.46038273  0.39320994  0.19920287     0.00200
C21         C  0.46347293  0.40026993  0.35981906     0.00200
C22         C  0.44944307  0.37371745  0.39105224     0.00200
C23         C  0.46650639  0.06322630  0.23183140     0.00200
C24         C  0.45323310  0.07540097  0.20007187     0.00200
C25         C  0.46892280  0.05191911  0.37457150     0.00200
C26         C  0.45658313  0.07359561  0.39391282     0.00200
O27         O  0.01276728  0.05000264  0.24323051    -0.74790
O28         O  0.06877708  0.04880822  0.33681425    -0.74820
O29         O  0.01153268  0.04354856  0.33477651    -0.74870
O30         O  0.06876686  0.05192691  0.24027609    -0.74920
O31         O  0.10874675  0.11194813  0.25439555    -0.74850
O32         O  0.03426767  0.10447738  0.34513122    -0.74830
O33         O  0.10830568  0.10920534  0.33964909    -0.74810
O34         O  0.03386513  0.11069267  0.25701293    -0.74870
Ni35       Ni  0.04028375  0.04722674  0.28869109     1.25410
Ni36       Ni  0.07279462  0.11293013  0.29875585     1.25360
C37         C  0.00828314  0.07807150  0.24013708     0.87390
C38         C  0.10036956  0.07487143  0.34851290     0.87320
C39         C  0.00820712  0.06929162  0.35287221     0.87350
C40         C  0.10137266  0.07898050  0.23793407     0.87520
O41         O  0.41304127  0.49477526  0.25328254    -0.74790
O42         O  0.41177950  0.41689854  0.33808454    -0.74820
O43         O  0.41161107  0.49065526  0.34549493    -0.74870
O44         O  0.41769206  0.42678984  0.24777923    -0.74920
O45         O  0.46985897  0.48007305  0.24047542    -0.74850
O46         O  0.46067825  0.99037586  0.36289765    -0.74830
O47         O  0.46548722  0.44165168  0.30955352    -0.74810
O48         O  0.46138656  0.02954856  0.29089781    -0.74870
Ni49       Ni  0.40767477  0.45410690  0.29619636     1.25410
Ni50       Ni  0.46775991  0.48756173  0.30137361     1.25360
C51         C  0.44274139  0.52795209  0.25977359     0.87390
C52         C  0.44314953  0.41748411  0.33478745     0.87320
C53         C  0.44290282  0.50731116  0.36708389     0.87350
C54         C  0.45093400  0.44498597  0.23125167     0.87520
C55         C  0.08997988  0.14368168  0.89923859     0.00200
C56         C  0.07273701  0.11214820  0.87267192     0.00200
C57         C  0.07568552  0.46891400  0.87413039     0.00200
C58         C  0.08771956  0.45183588  0.90122542     0.00200
C59         C  0.38694968  0.44915194  0.89085046     0.00200
C60         C  0.42024652  0.46950660  0.87046911     0.00200
C61         C  0.08085376  0.46908958  0.72860989     0.00200
C62         C  0.09272450  0.44852544  0.70619399     0.00200
O63         O  0.13545536  0.03372269  0.75761484    -0.74790
O64         O  0.12478924  0.10449454  0.84225916    -0.74820
O65         O  0.12960849  0.03752721  0.85113821    -0.74870
O66         O  0.12474748  0.10356118  0.75435012    -0.74920
O67         O  0.06735374  0.06810529  0.77208611    -0.74850
O68         O  0.08645873  0.99715829  0.81093054    -0.74830
O69         O  0.07148610  0.05187525  0.85105278    -0.74810
O70         O  0.08696787  0.02926602  0.73197220    -0.74870
Ni71       Ni  0.13446071  0.07300237  0.80073553     1.25410
Ni72       Ni  0.07510062  0.03383996  0.79212405     1.25360
C73         C  0.10597649  0.01414204  0.73337839     0.87390
C74         C  0.09201658  0.08843743  0.85866187     0.87320
C75         C  0.10183560  0.00281065  0.84556569     0.87350
C76         C  0.09022658  0.09608651  0.75251461     0.87520
C77         C  0.06838121  0.11209765  0.73032520     0.00200
C78         C  0.08484255  0.14270529  0.70368806     0.00200
C79         C  0.42392931  0.46867928  0.72482245     0.00200
C80         C  0.39489582  0.45016552  0.69727932     0.00200
O81         O  0.44160251  0.99761253  0.78870730    -0.74790
O82         O  0.03170034  0.07225708  0.82553882    -0.74820
O83         O  0.47444491  0.03005473  0.86766130    -0.74870
O84         O  0.00860532  0.05295702  0.74759328    -0.74920
O85         O  0.50904063  0.10596587  0.76042797    -0.74850
O86         O  0.42951111  0.03420501  0.84429945    -0.74830
O87         O  0.50770898  0.10444711  0.84936513    -0.74810
O88         O  0.43736249  0.03742507  0.75022448    -0.74870
Ni89       Ni  0.48954511  0.03554460  0.80683968     1.25410
Ni90       Ni  0.46813357  0.07368196  0.80161185     1.25360
C91         C  0.43100693  0.00269741  0.75452186     0.87390
C92         C  0.03549461  0.09808717  0.84932148     0.87320
C93         C  0.44022827  0.01475150  0.86723298     0.87350
C94         C  0.02527932  0.08965789  0.74219647     0.87520
O95         O  0.03735037  0.47914220  0.76179388    -0.74790
O96         O  0.47306247  0.47942282  0.83612421    -0.74820
O97         O  0.03006909  0.48049229  0.85032560    -0.74870
O98         O  0.48166157  0.48122041  0.74841273    -0.74920
O99         O  0.44124880  0.41980352  0.75210631    -0.74850
O100        O  0.51020567  0.41931881  0.84436415    -0.74830
O101        O  0.43714769  0.41842505  0.84053380    -0.74810
O102        O  0.51296966  0.41816700  0.75555173    -0.74870
Ni103      Ni  0.50610400  0.48107323  0.79916693     1.25410
Ni104      Ni  0.47348031  0.41509277  0.79805635     1.25360
C105        C  0.04064081  0.45240991  0.74770588     0.87390
C106        C  0.44335976  0.45267144  0.84951209     0.87320
C107        C  0.03455630  0.45313855  0.85974751     0.87350
C108        C  0.45007357  0.45368547  0.73834562     0.87520
O109        O  0.25376259  0.21230517  0.99588954    -0.74790
O110        O  0.33172678  0.27875394  0.07494179    -0.74820
O111        O  0.26729228  0.20970684  0.08115392    -0.74870
O112        O  0.31822553  0.28136553  0.98976620    -0.74920
O113        O  0.28862703  0.31187960  0.00859944    -0.74850
O114        O  0.23544322  0.23847495  0.09757906    -0.74830
O115        O  0.30032448  0.30746327  0.09411660    -0.74810
O116        O  0.22387795  0.24309741  0.01297071    -0.74870
Ni117      Ni  0.29386200  0.24445413  0.03488830     1.25410
Ni118      Ni  0.26105544  0.27636562  0.05386673     1.25360
C119        C  0.22565574  0.21652177  0.99222241     0.87390
C120        C  0.32899343  0.30416704  0.09712155     0.87320
C121        C  0.24235988  0.21159468  0.10356805     0.87350
C122        C  0.31246708  0.30916706  0.98482813     0.87520
O123        O  0.99938896  0.28759220  0.00248232    -0.74790
O124        O  0.48325901  0.21032780  0.08325595    -0.74820
O125        O  0.48149018  0.27648339  0.08752856    -0.74870
O126        O  0.00163101  0.22150199  0.99894655    -0.74920
O127        O  0.06128702  0.25450114  0.01817335    -0.74850
O128        O  0.04156540  0.30955572  0.10547549    -0.74830
O129        O  0.04294662  0.24308228  0.10300133    -0.74810
O130        O  0.05936541  0.32042155  0.02108312    -0.74870
Ni131      Ni  0.48926311  0.24783672  0.04248087     1.25410
Ni132      Ni  0.05341041  0.28302084  0.06258199     1.25360
C133        C  0.03197741  0.31696543  0.99904062     0.87390
C134        C  0.01040132  0.21332073  0.10531151     0.87320
C135        C  0.00837861  0.30256264  0.11034002     0.87350
C136        C  0.03501098  0.22861681  0.99462464     0.87520
O137        O  0.22049270  0.47177230  0.01304667    -0.74790
O138        O  0.29202148  0.98812700  0.10117033    -0.74820
O139        O  0.22525452  0.98365246  0.09970156    -0.74870
O140        O  0.28715314  0.47521191  0.01473446    -0.74920
O141        O  0.31656090  0.03825813  0.00316990    -0.74850
O142        O  0.25375925  0.04664880  0.08789376    -0.74830
O143        O  0.32000523  0.05105639  0.08988195    -0.74810
O144        O  0.24993225  0.03472582  0.00133690    -0.74870
Ni145      Ni  0.25519312  0.47740180  0.05738205     1.25410
Ni146      Ni  0.28612412  0.04490992  0.04509421     1.25360
C147        C  0.22267458  0.50073799  0.99390856     0.87390
C148        C  0.31765150  0.02264671  0.11021901     0.87320
C149        C  0.22925365  0.01654788  0.10742535     0.87350
C150        C  0.31243399  0.50515139  0.99587967     0.87520
O151        O  0.32868715  0.05729701  0.51802488    -0.74790
O152        O  0.25395448  0.03732304  0.60344306    -0.74820
O153        O  0.31749147  0.03496083  0.60141405    -0.74870
O154        O  0.26606846  0.06097888  0.52054420    -0.74920
O155        O  0.23339545  0.00041582  0.49677611    -0.74850
O156        O  0.28497196  0.47384771  0.57953130    -0.74830
O157        O  0.22185630  0.47643068  0.58043116    -0.74810
O158        O  0.29623560  0.99608807  0.49604015    -0.74870
Ni159      Ni  0.29269484  0.04979175  0.56161745     1.25410
Ni160      Ni  0.25790520  0.48452672  0.53733024     1.25360
C161        C  0.32497873  0.02961159  0.49369543     0.87390
C162        C  0.22557603  0.50337645  0.60581415     0.87320
C163        C  0.31021687  0.50041967  0.60360247     0.87350
C164        C  0.24085956  0.03531009  0.49603844     0.87520
O165        O  0.04399889  0.24128162  0.49327992    -0.74790
O166        O  0.06183576  0.31847011  0.57907557    -0.74820
O167        O  0.06492573  0.25315204  0.57713668    -0.74870
O168        O  0.04157159  0.30717524  0.49459301    -0.74920
O169        O  0.48230181  0.27449968  0.51561943    -0.74850
O170        O  0.00551532  0.21961210  0.59742647    -0.74830
O171        O  0.00251537  0.28474542  0.59980837    -0.74810
O172        O  0.48456852  0.20855897  0.51366289    -0.74870
Ni173      Ni  0.05523513  0.28131259  0.53529431     1.25410
Ni174      Ni  0.49159251  0.24571396  0.55723235     1.25360
C175        C  0.01147256  0.21138170  0.49092305     0.87390
C176        C  0.03505437  0.31421809  0.60329858     0.87320
C177        C  0.03892235  0.22658107  0.59953184     0.87350
C178        C  0.00821315  0.30017286  0.49219867     0.87520
O179        O  0.22085273  0.25323425  0.58721494    -0.74790
O180        O  0.29605975  0.30359289  0.50050221    -0.74820
O181        O  0.22637210  0.24174319  0.50110547    -0.74870
O182        O  0.29048727  0.31574720  0.58521578    -0.74920
O183        O  0.31345828  0.27883877  0.60312908    -0.74850
O184        O  0.25053775  0.20542672  0.51656378    -0.74830
O185        O  0.31953645  0.26723486  0.51809733    -0.74810
O186        O  0.24352931  0.21564184  0.60261348    -0.74870
Ni187      Ni  0.25747476  0.27980997  0.54310722     1.25410
Ni188      Ni  0.28245153  0.24036427  0.56085426     1.25360
C189        C  0.21964743  0.22591746  0.60893739     0.87390
C190        C  0.32037759  0.29366340  0.49522967     0.87320
C191        C  0.22892017  0.21208859  0.49394443     0.87350
C192        C  0.31336843  0.31028950  0.60663480     0.87520
C193        C  0.36530667  0.37923164  0.69947994    -0.26680
C194        C  0.38575524  0.41325104  0.67598684    -0.14750
C195        C  0.38785915  0.41106808  0.63041599     0.35880
C196        C  0.36573661  0.37596877  0.60918579    -0.26130
C197        C  0.34189925  0.34277326  0.63225873    -0.15370
C198        C  0.34295010  0.34384377  0.67810347     0.36960
N199        N  0.31952011  0.31083007  0.70382820    -0.89620
H200        H  0.36342694  0.38079854  0.73443857     0.18080
H201        H  0.36569077  0.37502402  0.57400990     0.18070
N202        N  0.41074994  0.44420285  0.60462340    -0.88650
H203        H  0.33682379  0.30504574  0.72239767     0.35450
H204        H  0.30344927  0.28650715  0.68453082     0.40540
H205        H  0.42836648  0.46798393  0.62394846     0.40160
H206        H  0.39325073  0.45076563  0.58760700     0.35050
C207        C  0.31340920  0.45654403  0.65602185    -0.26680
C208        C  0.33173702  0.49118112  0.63366245    -0.14750
C209        C  0.37067893  0.01531314  0.63862566     0.35880
C210        C  0.39050553  0.50295061  0.66308699    -0.26130
C211        C  0.37244359  0.46710469  0.68313661    -0.15370
C212        C  0.33330671  0.44457901  0.68108123     0.36960
N213        N  0.31366905  0.40909261  0.70368711    -0.89620
H214        H  0.28351175  0.43827719  0.65338832     0.18080
H215        H  0.42055722  0.02037794  0.66373979     0.18070
N216        N  0.39123145  0.05124240  0.61696316    -0.88650
H217        H  0.29830647  0.38721086  0.68098877     0.35450
H218        H  0.29499732  0.41070326  0.72495856     0.40540
H219        H  0.38240828  0.06961666  0.62844365     0.40160
H220        H  0.38595424  0.04653691  0.58366623     0.35050
C221        C  0.14603944  0.20193990  0.69508923    -0.26680
C222        C  0.12479237  0.16178082  0.69096816    -0.14750
C223        C  0.13763851  0.14288638  0.66354346     0.35880
C224        C  0.17027811  0.16444659  0.63947818    -0.26130
C225        C  0.18931483  0.20471887  0.64038159    -0.15370
C226        C  0.17764698  0.22369963  0.66937220     0.36960
N227        N  0.19747675  0.26489546  0.67223231    -0.89620
H228        H  0.13590999  0.21654735  0.71558080     0.18080
H229        H  0.17908566  0.14963221  0.61735671     0.18070
N230        N  0.11593797  0.10215355  0.65706763    -0.88650
H231        H  0.18687125  0.27404769  0.69737232     0.35450
H232        H  0.19234244  0.27498429  0.64371098     0.40540
H233        H  0.13252602  0.09067255  0.66469410     0.40160
H234        H  0.10900000  0.09656849  0.62418987     0.35050
C235        C  0.06565695  0.15475463  0.63360887    -0.26680
C236        C  0.06370103  0.15645475  0.67891523    -0.14750
C237        C  0.05227641  0.18050423  0.69792968     0.35880
C238        C  0.04236881  0.20169197  0.67126829    -0.26130
C239        C  0.04717805  0.20206124  0.62614805    -0.15370
C240        C  0.05995726  0.17885578  0.60723099     0.36960
N241        N  0.06840859  0.17931310  0.56185832    -0.89620
H242        H  0.07548991  0.13724185  0.61869474     0.18080
H243        H  0.03329315  0.21990143  0.68604990     0.18070
N244        N  0.05337888  0.18571727  0.74401309    -0.88650
H245        H  0.09678942  0.18924937  0.55922656     0.35450
H246        H  0.06374460  0.19817001  0.54439383     0.40540
H247        H  0.02700456  0.17927997  0.75422552     0.40160
H248        H  0.07190203  0.21469462  0.75110867     0.35050
C249        C  0.14090854  0.49696491  0.65722152    -0.26680
C250        C  0.13071701  0.46749617  0.68709811    -0.14750
C251        C  0.15427622  0.45260680  0.69331536     0.35880
C252        C  0.18633321  0.46598517  0.66767433    -0.26130
C253        C  0.19569568  0.49467523  0.63703182    -0.15370
C254        C  0.17303893  0.01075497  0.63249756     0.36960
N255        N  0.18062127  0.03918147  0.60096365    -0.89620
H256        H  0.12257526  0.00788596  0.65080416     0.18080
H257        H  0.20360539  0.45341749  0.67082595     0.18070
N258        N  0.14501535  0.42329690  0.72471929    -0.88650
H259        H  0.18089694  0.02759218  0.57057517     0.35450
H260        H  0.20688081  0.06290160  0.60759905     0.40540
H261        H  0.14571812  0.43512364  0.75530544     0.40160
H262        H  0.16502752  0.41522655  0.72504315     0.35050
C263        C  0.06213253  0.37726887  0.70421359    -0.26680
C264        C  0.06623900  0.41078335  0.68638493    -0.14750
C265        C  0.05390289  0.40987604  0.64368979     0.35880
C266        C  0.04198357  0.37691438  0.61793141    -0.26130
C267        C  0.04155836  0.34477452  0.63428995    -0.15370
C268        C  0.05001513  0.34408487  0.67851082     0.36960
N269        N  0.04822483  0.31114770  0.69779155    -0.89260
H270        H  0.07107171  0.37778619  0.73723263     0.18080
H271        H  0.03476097  0.37695277  0.58426447     0.18070
N272        N  0.05631236  0.44355116  0.62572088    -0.88650
H273        H  0.07524144  0.31870473  0.70641982     0.35450
H274        H  0.03861889  0.28817613  0.67583965     0.40540
H275        H  0.03815818  0.44920313  0.64319085     0.40160
H276        H  0.04706497  0.43848347  0.59355348     0.35050
C277        C  0.31214563  0.35159408  0.92887761    -0.26680
C278        C  0.33275447  0.33896363  0.95139479    -0.14750
C279        C  0.37185817  0.35831369  0.94439400     0.35880
C280        C  0.38914517  0.39293626  0.92138334    -0.26130
C281        C  0.36855696  0.40743192  0.90225413    -0.15370
C282        C  0.32941242  0.38467440  0.90371470     0.36960
N283        N  0.30682342  0.39580634  0.88104042    -0.89620
H284        H  0.28216131  0.33627135  0.93195270     0.18080
H285        H  0.41915695  0.40983057  0.92138504     0.18070
N286        N  0.39528657  0.34478814  0.96017225    -0.88650
H287        H  0.28987427  0.39903246  0.90362271     0.35450
H288        H  0.28965158  0.37354904  0.85959608     0.40540
H289        H  0.38131010  0.32125264  0.98018873     0.40160
H290        H  0.41659461  0.36666438  0.97863993     0.35050
C291        C  0.38184930  0.47893295  0.95877066    -0.26680
C292        C  0.37260631  0.47095648  0.91478941    -0.14750
C293        C  0.34813022  0.48090100  0.89588868     0.35880
C294        C  0.33077964  0.49550252  0.92267148    -0.26130
C295        C  0.33809504  0.50073554  0.96734098    -0.15370
C296        C  0.36510650  0.49390323  0.98525284     0.36960
N297        N  0.37552810  0.00084096  0.03023034    -0.89620
H298        H  0.40130881  0.47207841  0.97299861     0.18080
H299        H  0.30978404  0.50045902  0.90926145     0.18070
N300        N  0.33846504  0.47292964  0.85071122    -0.88650
H301        H  0.36589514  0.97428837  0.04476659     0.35450
H302        H  0.36335410  0.01439161  0.04637711     0.40540
H303        H  0.36217030  0.48992711  0.83238340     0.40160
H304        H  0.31914468  0.48078743  0.84240623     0.35050
C305        C  0.04094814  0.38108525  0.99000566    -0.26680
C306        C  0.03808347  0.34824233  0.97055718    -0.14750
C307        C  0.04430538  0.34759186  0.92552215     0.35880
C308        C  0.05548453  0.38086696  0.90162840    -0.26130
C309        C  0.06212754  0.41491169  0.92212509    -0.15370
C310        C  0.05301645  0.41456511  0.96615722     0.36960
N311        N  0.05823179  0.44893260  0.98691159    -0.89620
H312        H  0.03557029  0.38117673  0.02441379     0.18080
H313        H  0.06224442  0.38111213  0.86762309     0.18070
N314        N  0.04148450  0.31468716  0.90350710    -0.88650
H315        H  0.05075245  0.44406805  0.01960511     0.35450
H316        H  0.04001575  0.45581951  0.97222494     0.40540
H317        H  0.03294512  0.29162576  0.92430566     0.40160
H318        H  0.06804231  0.32227360  0.89270352     0.35050
C319        C  0.14080576  0.50256907  0.94367876    -0.26680
C320        C  0.12721700  0.47092229  0.91533158    -0.14750
C321        C  0.14844803  0.45349640  0.90805652     0.35880
C322        C  0.18060122  0.46511622  0.93269538    -0.26130
C323        C  0.19257792  0.49460062  0.96395689    -0.15370
C324        C  0.17319455  0.51483635  0.96807823     0.36960
N325        N  0.18324790  0.54573426  0.99870838    -0.89620
H326        H  0.12457928  0.51612948  0.94935886     0.18080
H327        H  0.19570436  0.45019983  0.92826461     0.18070
N328        N  0.13708563  0.42352378  0.87618241    -0.88650
H329        H  0.20557123  0.05126188  0.01855143     0.35450
H330        H  0.19134909  0.07071595  0.98129522     0.40540
H331        H  0.13370506  0.39917303  0.89159028     0.40160
H332        H  0.15850729  0.43218760  0.85358781     0.35050
C333        C  0.19374196  0.19497978  0.92107739    -0.26680
C334        C  0.19340734  0.18941004  0.96584432    -0.14750
C335        C  0.15990992  0.16246538  0.98615935     0.35880
C336        C  0.12671921  0.14612503  0.96275122    -0.26130
C337        C  0.12640764  0.15439247  0.91896423    -0.15370
C338        C  0.16044363  0.17704255  0.89701227     0.36960
N339        N  0.16098512  0.18302022  0.85105364    -0.89620
H340        H  0.21961850  0.21505092  0.90545456     0.18080
H341        H  0.10072694  0.12788258  0.97930332     0.18070
N342        N  0.15841200  0.15227879  0.03083848    -0.88650
H343        H  0.18817221  0.20103248  0.84034289     0.35450
H344        H  0.14627461  0.19671905  0.84438907     0.40540
H345        H  0.18510076  0.16387518  0.04351000     0.40160
H346        H  0.14683731  0.12255329  0.03183273     0.35050
C347        C  0.08020465  0.22599803  0.94531297    -0.26680
C348        C  0.04451380  0.20688738  0.96299938    -0.14750
C349        C  0.02142755  0.16708007  0.95422101     0.35880
C350        C  0.03600802  0.14698803  0.93232155    -0.26130
C351        C  0.07246915  0.16603641  0.91578756    -0.15370
C352        C  0.09413170  0.20642177  0.92170978     0.36960
N353        N  0.13102812  0.22806539  0.90502876    -0.89620
H354        H  0.09812648  0.25660689  0.95081967     0.18080
H355        H  0.01916149  0.11603391  0.93017947     0.18070
N356        N  0.98363744  0.14599001  0.96832314    -0.88650
H357        H  0.14919619  0.24203031  0.93100962     0.35450
H358        H  0.13234694  0.24894049  0.88443582     0.40540
H359        H  0.46927247  0.15775557  0.95391794     0.40160
H360        H  0.48300739  0.14911855  0.00184785     0.35050
C361        C  0.48760720  0.11128980  0.45825463    -0.26680
C362        C  0.48308249  0.11164630  0.41341755    -0.14750
C363        C  0.49313569  0.14663562  0.39311051     0.35880
C364        C  0.50550954  0.18002472  0.41900998    -0.26130
C365        C  0.50507388  0.17804816  0.46446299    -0.15370
C366        C  0.49559267  0.14289795  0.48423677     0.36960
N367        N  0.49162714  0.13713541  0.53031807    -0.89620
H368        H  0.47947443  0.08436750  0.47394288     0.18080
H369        H  0.51236431  0.20682355  0.40399325     0.18070
N370        N  0.48697931  0.14738099  0.34740603    -0.88650
H371        H  0.46390878  0.11650508  0.53648220     0.35450
H372        H  0.99677284  0.16165502  0.54735394     0.40540
H373        H  0.50538087  0.14183907  0.33056753     0.40160
H374        H  0.49329646  0.17478710  0.33833284     0.35050
C375        C  0.40428513  0.02543884  0.44028795    -0.26680
C376        C  0.41796822  0.05644988  0.41166679    -0.14750
C377        C  0.39846662  0.07617930  0.40782147     0.35880
C378        C  0.36765096  0.06644917  0.43418087    -0.26130
C379        C  0.35480347  0.03625267  0.46329865    -0.15370
C380        C  0.37224841  0.01441078  0.46515603     0.36960
N381        N  0.35893758  0.48286212  0.49450355    -0.89620
H382        H  0.41975819  0.01114098  0.44530648     0.18080
H383        H  0.35395805  0.08292833  0.43227129     0.18070
N384        N  0.41049900  0.10696663  0.37801450    -0.88650
H385        H  0.37607473  0.47113084  0.49357723     0.35450
H386        H  0.33296284  0.46127312  0.48322763     0.40540
H387        H  0.41613415  0.13163011  0.39558828     0.40160
H388        H  0.38859387  0.10016387  0.35672234     0.35050
C389        C  0.39504708  0.07607686  0.19131569    -0.26680
C390        C  0.41304927  0.05501531  0.18854887    -0.14750
C391        C  0.39561324  0.01928899  0.16611529     0.35880
C392        C  0.36187926  0.00703496  0.14427752    -0.26130
C393        C  0.34632981  0.03047703  0.14301752    -0.15370
C394        C  0.36195087  0.06429418  0.16865738     0.36960
N395        N  0.34497082  0.08738065  0.17001945    -0.89620
H396        H  0.40837048  0.10331648  0.20871637     0.18080
H397        H  0.34939318  0.48077270  0.12513735     0.18070
N398        N  0.41317905  0.99676838  0.16325467    -0.88650
H399        H  0.36018949  0.11156990  0.18995523     0.35450
H400        H  0.31886052  0.07106043  0.18433409     0.40540
H401        H  0.43817956  0.01232998  0.14654561     0.40160
H402        H  0.39669434  0.47152034  0.14534544     0.35050
C403        C  0.99529620  0.14675534  0.19832676    -0.26680
C404        C  0.47745208  0.11124472  0.17595555    -0.14750
C405        C  0.47565783  0.11077939  0.13035949     0.35880
C406        C  0.48856308  0.14497471  0.10835472    -0.26130
C407        C  0.50372840  0.18004046  0.13061376    -0.15370
C408        C  0.00867649  0.18143210  0.17586723     0.36960
N409        N  0.02525038  0.21751566  0.19890112    -0.89620
H410        H  0.99616151  0.14723230  0.23343706     0.18080
H411        H  0.48534732  0.14390690  0.07357547     0.18070
N412        N  0.45911408  0.07539418  0.10625474    -0.88650
H413        H  0.02673186  0.21343948  0.23205347     0.35450
H414        H  0.00768213  0.22853650  0.19556030     0.40540
H415        H  0.47874721  0.07667467  0.08422785     0.40160
H416        H  0.43673670  0.07287011  0.08856305     0.35050
C417        C  0.36407001  0.35241739  0.45487730    -0.26680
C418        C  0.35016192  0.31335682  0.46278884    -0.14750
C419        C  0.36657709  0.29473514  0.44102142     0.35880
C420        C  0.39346571  0.31413576  0.40977621    -0.26130
C421        C  0.41032822  0.35387865  0.40564039    -0.15370
C422        C  0.39551711  0.37334311  0.42869233     0.36960
N423        N  0.41424362  0.41438963  0.42920858    -0.89620
H424        H  0.35287114  0.36759199  0.47240008     0.18080
H425        H  0.40542054  0.29908767  0.39354181     0.18070
N426        N  0.35934770  0.25747773  0.45220626    -0.88650
H427        H  0.42196707  0.42403692  0.46119065     0.35450
H428        H  0.39530588  0.42237195  0.41955581     0.40540
H429        H  0.33113557  0.23819414  0.44951974     0.40160
H430        H  0.36779182  0.25831813  0.48421433     0.35050
C431        C  0.48404293  0.33869533  0.39410379    -0.26680
C432        C  0.47364267  0.36286907  0.41470078    -0.14750
C433        C  0.47908564  0.36966014  0.45974274     0.35880
C434        C  0.49168066  0.34956000  0.48388644    -0.26130
C435        C  0.49958848  0.32337020  0.46383405    -0.15370
C436        C  0.49691976  0.31869214  0.41815638     0.36960
N437        N  0.50528722  0.29283302  0.39539283    -0.89620
H438        H  0.47961524  0.33325431  0.35951060     0.18080
H439        H  0.99425949  0.35343324  0.51878944     0.18070
N440        N  0.47018293  0.39570657  0.48093848    -0.88650
H441        H  0.48064961  0.27116413  0.38126806     0.35450
H442        H  0.51435982  0.27938378  0.41638407     0.40540
H443        H  0.48813033  0.42305360  0.46879366     0.40160
H444        H  0.97535583  0.39721175  0.51424723     0.35050
C445        C  0.42524491  0.38123663  0.13119909    -0.26680
C446        C  0.42408659  0.37644839  0.17613191    -0.14750
C447        C  0.38990716  0.35065056  0.19612820     0.35880
C448        C  0.35822413  0.32830723  0.16998272    -0.26130
C449        C  0.36047239  0.33125819  0.12468497    -0.15370
C450        C  0.39378714  0.35902200  0.10534975     0.36960
N451        N  0.39576900  0.36388561  0.05926536    -0.89620
H452        H  0.45138698  0.40120047  0.11599960     0.18080
H453        H  0.33220447  0.30747012  0.18473549     0.18070
N454        N  0.38743905  0.34708934  0.24252738    -0.88650
H455        H  0.42229897  0.38580314  0.05047316     0.35450
H456        H  0.37752463  0.37315133  0.05088758     0.40540
H457        H  0.40393690  0.33629304  0.25272157     0.40160
H458        H  0.36025737  0.32728316  0.25184353     0.35050
C459        C  0.02062215  0.36633715  0.13436894    -0.26680
C460        C  0.50148733  0.32656372  0.14093406    -0.14750
C461        C  0.47412140  0.31077137  0.17355708     0.35880
C462        C  0.46508645  0.33478859  0.19678977    -0.26130
C463        C  0.48164279  0.37401689  0.18752127    -0.15370
C464        C  0.01056490  0.39019596  0.15667296     0.36960
N465        N  0.02696419  0.42975657  0.14488572    -0.89620
H466        H  0.04168247  0.37840405  0.10937879     0.18080
H467        H  0.44288337  0.32189202  0.22016769     0.18070
N468        N  0.45461154  0.27064940  0.18373005    -0.88650
H469        H  0.04512864  0.43607650  0.11878378     0.35450
H470        H  0.04331819  0.44657285  0.17088318     0.40540
H471        H  0.46494230  0.25577430  0.16654890     0.40160
H472        H  0.42688325  0.25902016  0.17448297     0.35050
C473        C  0.21517273  0.13358836  0.18589015    -0.26680
C474        C  0.17604081  0.11365868  0.18399682    -0.14750
C475        C  0.15896992  0.12879971  0.15799712     0.35880
C476        C  0.18134936  0.16341530  0.13573811    -0.26130
C477        C  0.22026498  0.18109659  0.13528242    -0.15370
C478        C  0.23729722  0.16645407  0.16144295     0.36960
N479        N  0.27710404  0.18459717  0.16238256    -0.89620
H480        H  0.22905213  0.12259023  0.20483379     0.18080
H481        H  0.16825701  0.17494296  0.11586118     0.18070
N482        N  0.11945012  0.10795685  0.15163203    -0.88650
H483        H  0.28537071  0.17002445  0.18286641     0.35450
H484        H  0.28774393  0.21210975  0.17573293     0.40540
H485        H  0.11232531  0.08226038  0.13546680     0.40160
H486        H  0.11150105  0.12294125  0.13137550     0.35050
C487        C  0.15285847  0.03062990  0.14636315    -0.26680
C488        C  0.16657115  0.04730213  0.18722252    -0.14750
C489        C  0.19554969  0.04451514  0.20630535     0.35880
C490        C  0.21521457  0.03214879  0.18036690    -0.26130
C491        C  0.20408384  0.01997687  0.13746097    -0.15370
C492        C  0.17091828  0.01595290  0.12162898     0.36960
N493        N  0.15721826  0.99930760  0.07942910    -0.89620
H494        H  0.12954954  0.03144390  0.13261266     0.18080
H495        H  0.23979241  0.03319382  0.19298189     0.18070
N496        N  0.20452340  0.05374734  0.25146548    -0.88650
H497        H  0.13270758  0.99902074  0.07238396     0.35450
H498        H  0.15027302  0.97064627  0.08031086     0.40540
H499        H  0.21274446  0.08235706  0.25748954     0.40160
H500        H  0.22688046  0.05054280  0.25997785     0.35050
C501        C  0.20420417  0.14884269  0.39423630    -0.26680
C502        C  0.16702769  0.12214237  0.40283898    -0.14750
C503        C  0.14804116  0.13059192  0.43531071     0.35880
C504        C  0.16847998  0.16281107  0.46261132    -0.26130
C505        C  0.20707633  0.18527737  0.45868127    -0.15370
C506        C  0.22469263  0.17917152  0.42299107     0.36960
N507        N  0.26400238  0.20046978  0.41806137    -0.89620
H508        H  0.21886104  0.14234273  0.36965039     0.18080
H509        H  0.15492461  0.16795783  0.48968545     0.18070
N510        N  0.11008211  0.10302769  0.44553708    -0.88650
H511        H  0.27483672  0.19371713  0.44454713     0.35450
H512        H  0.27295305  0.22971289  0.41894069     0.40540
H513        H  0.09337226  0.10601167  0.42287441     0.40160
H514        H  0.10288366  0.10949585  0.47565322     0.35050
C515        C  0.21057900  0.03374435  0.42527031    -0.26680
C516        C  0.21904249  0.04638822  0.46862828    -0.14750
C517        C  0.20670182  0.07030908  0.48588423     0.35880
C518        C  0.18238289  0.07666461  0.46182046    -0.26130
C519        C  0.17499857  0.06587950  0.41787903    -0.15370
C520        C  0.19085772  0.04559021  0.39889950     0.36960
N521        N  0.18877216  0.03904497  0.35290259    -0.89620
H522        H  0.22144031  0.01682157  0.41130167     0.18080
H523        H  0.17101283  0.09243156  0.47722570     0.18070
N524        N  0.21937491  0.08889888  0.52749899    -0.88650
H525        H  0.20239649  0.02442604  0.34406149     0.35450
H526        H  0.20324513  0.06591075  0.33839917     0.40540
H527        H  0.24729868  0.11017045  0.52425740     0.40160
H528        H  0.20558866  0.10330450  0.53659494     0.35050
C529        C  0.12515632  0.55941573  0.36743961     0.00200
C530        C  0.15531030  0.58166402  0.39239203     0.00200
C531        C  0.12614668  0.56141482  0.23069580     0.00200
C532        C  0.15545871  0.57433495  0.20359729     0.00200
O533        O  0.11266191  0.99254546  0.34099319    -0.74790
O534        O  0.03073986  0.92840232  0.25541034    -0.74820
O535        O  0.10497707  0.99040266  0.25099729    -0.74870
O536        O  0.03105593  0.91854606  0.34041814    -0.74920
O537        O  0.01387720  0.96021482  0.35563256    -0.74850
O538        O  0.09416031  0.02739852  0.28879409    -0.74830
O539        O  0.02258526  0.97709773  0.26768920    -0.74810
O540        O  0.07407738  0.00145490  0.37566353    -0.74870
Ni541      Ni  0.07173732  0.95432531  0.29794345     1.25410
Ni542      Ni  0.05083927  0.99303753  0.32105684     1.25360
C543        C  0.10663877  0.01476721  0.36704101     0.87390
C544        C  0.01197030  0.94494254  0.24807786     0.87320
C545        C  0.10974977  0.02393200  0.25689952     0.87350
C546        C  0.00593717  0.92621485  0.35481211     0.87520
C547        C  0.47446781  0.92650139  0.22265424     0.00200
C548        C  0.46035628  0.89321459  0.19917054     0.00200
C549        C  0.46344703  0.90026426  0.35976566     0.00200
C550        C  0.44941421  0.87371774  0.39100348     0.00200
C551        C  0.46647044  0.56320004  0.23183093     0.00200
C552        C  0.45318816  0.57538605  0.20008360     0.00200
C553        C  0.46890370  0.55193424  0.37459386     0.00200
C554        C  0.45657247  0.57361303  0.39395477     0.00200
O555        O  0.01273877  0.54998517  0.24325260    -0.74790
O556        O  0.06876447  0.54880331  0.33683717    -0.74820
O557        O  0.01151169  0.54355660  0.33480121    -0.74870
O558        O  0.06873893  0.55189593  0.24031251    -0.74920
O559        O  0.10871311  0.61192757  0.25439863    -0.74850
O560        O  0.03424760  0.60448609  0.34513762    -0.74830
O561        O  0.10828494  0.60920501  0.33965848    -0.74810
O562        O  0.03383304  0.61067574  0.25701383    -0.74870
Ni563      Ni  0.04025948  0.54721636  0.28871940     1.25410
Ni564      Ni  0.07276816  0.61292183  0.29875999     1.25360
C565        C  0.00825123  0.57805113  0.24014362     0.87390
C566        C  0.10035708  0.57487448  0.34853263     0.87320
C567        C  0.00818658  0.56930308  0.35288802     0.87350
C568        C  0.10134107  0.57895546  0.23795271     0.87520
O569        O  0.41305842  0.99480972  0.25326168    -0.74790
O570        O  0.41176294  0.91689840  0.33802825    -0.74820
O571        O  0.41162536  0.99065892  0.34546770    -0.74870
O572        O  0.41767907  0.92681195  0.24771887    -0.74920
O573        O  0.46985252  0.98008791  0.24042113    -0.74850
O574        O  0.46066778  0.49039215  0.36294431    -0.74830
O575        O  0.46546174  0.94162584  0.30948033    -0.74810
O576        O  0.46136050  0.52954147  0.29091958    -0.74870
Ni577      Ni  0.40767478  0.95412294  0.29615393     1.25410
Ni578      Ni  0.46776281  0.98755495  0.30132508     1.25360
C579        C  0.44276909  0.02797612  0.25976034     0.87390
C580        C  0.44312528  0.91747041  0.33472378     0.87320
C581        C  0.44291912  0.00730056  0.36705126     0.87350
C582        C  0.45092065  0.94500431  0.23118967     0.87520
C583        C  0.08984415  0.64360727  0.89931229     0.00200
C584        C  0.07259968  0.61211335  0.87268647     0.00200
C585        C  0.07573871  0.96897451  0.87413213     0.00200
C586        C  0.08773594  0.95197417  0.90139104     0.00200
C587        C  0.38685100  0.94907266  0.89079132     0.00200
C588        C  0.42016313  0.96944574  0.87044220     0.00200
C589        C  0.08086050  0.96917670  0.72854529     0.00200
C590        C  0.09271665  0.94860080  0.70613065     0.00200
O591        O  0.13540738  0.53368735  0.75768716    -0.74790
O592        O  0.12462498  0.60440990  0.84229238    -0.74820
O593        O  0.12950452  0.53750328  0.85118477    -0.74870
O594        O  0.12464462  0.60353513  0.75440467    -0.74920
O595        O  0.06717863  0.56791440  0.77181266    -0.74850
O596        O  0.08637918  0.49712913  0.81095530    -0.74830
O597        O  0.07125299  0.55181484  0.85091255    -0.74810
O598        O  0.08693549  0.52916981  0.73192360    -0.74870
Ni599      Ni  0.13434361  0.57295691  0.80078070     1.25410
Ni600      Ni  0.07498052  0.53374958  0.79202575     1.25360
C601        C  0.10595453  0.51406648  0.73341871     0.87390
C602        C  0.09182966  0.58836243  0.85862385     0.87320
C603        C  0.10175091  0.50278617  0.84559547     0.87350
C604        C  0.09010870  0.59600691  0.75243046     0.87520
C605        C  0.06833729  0.61213170  0.73028342     0.00200
C606        C  0.08487279  0.64279400  0.70372341     0.00200
C607        C  0.42397684  0.96872785  0.72479698     0.00200
C608        C  0.39496567  0.95022355  0.69721902     0.00200
O609        O  0.44166998  0.49764893  0.78866829    -0.74790
O610        O  0.03176345  0.57255313  0.82520782    -0.74820
O611        O  0.47454598  0.53013466  0.86752465    -0.74870
O612        O  0.00850786  0.55300941  0.74738590    -0.74920
O613        O  0.50897694  0.60601153  0.76034822    -0.74850
O614        O  0.42952378  0.53421076  0.84428114    -0.74830
O615        O  0.50759775  0.60445827  0.84936200    -0.74810
O616        O  0.43728599  0.53738745  0.75020651    -0.74870
Ni617      Ni  0.48959547  0.53566396  0.80667602     1.25410
Ni618      Ni  0.46807132  0.57369170  0.80156516     1.25360
C619        C  0.43099465  0.50268097  0.75451261     0.87390
C620        C  0.03544264  0.59819831  0.84921707     0.87320
C621        C  0.44031351  0.51480630  0.86718499     0.87350
C622        C  0.02521117  0.58971522  0.74205578     0.87520
O623        O  0.03739105  0.97923474  0.76183539    -0.74790
O624        O  0.47304144  0.97941307  0.83617288    -0.74820
O625        O  0.03012733  0.98056687  0.85033183    -0.74870
O626        O  0.48167711  0.98126292  0.74845738    -0.74920
O627        O  0.44128152  0.91984422  0.75208932    -0.74850
O628        O  0.51025397  0.91938825  0.84435110    -0.74830
O629        O  0.43713904  0.91841266  0.84050700    -0.74810
O630        O  0.51300471  0.91825714  0.75552143    -0.74870
Ni631      Ni  0.50612177  0.98112312  0.79920600     1.25410
Ni632      Ni  0.47351310  0.91514142  0.79803954     1.25360
C633        C  0.04066892  0.95250599  0.74769057     0.87390
C634        C  0.44332387  0.95264410  0.84951019     0.87320
C635        C  0.03461088  0.95320839  0.85974051     0.87350
C636        C  0.45010692  0.95372999  0.73834823     0.87520
O637        O  0.25364192  0.71225019  0.99591533    -0.74790
O638        O  0.33166519  0.77872835  0.07489465    -0.74820
O639        O  0.26722512  0.70969204  0.08116872    -0.74870
O640        O  0.31810925  0.78130029  0.98972514    -0.74920
O641        O  0.28853426  0.81183598  0.00856893    -0.74850
O642        O  0.23539578  0.73847813  0.09761011    -0.74830
O643        O  0.30028500  0.80745697  0.09408575    -0.74810
O644        O  0.22377597  0.74305878  0.01300937    -0.74870
Ni645      Ni  0.29376988  0.74441402  0.03487572     1.25410
Ni646      Ni  0.26098616  0.77634579  0.05386884     1.25360
C647        C  0.22553384  0.71646743  0.99226934     0.87390
C648        C  0.32895111  0.80415305  0.09707569     0.87320
C649        C  0.24230808  0.71159462  0.10359830     0.87350
C650        C  0.31235694  0.80910542  0.98478263     0.87520
O651        O  0.99937892  0.78768068  0.00255915    -0.74790
O652        O  0.48321814  0.71033565  0.08324142    -0.74820
O653        O  0.48147427  0.77650235  0.08759638    -0.74870
O654        O  0.00159406  0.72157170  0.99893764    -0.74920
O655        O  0.06124972  0.75454022  0.01816781    -0.74850
O656        O  0.04154954  0.80954477  0.10554987    -0.74830
O657        O  0.04290483  0.74306117  0.10299114    -0.74810
O658        O  0.05935317  0.82048099  0.02116959    -0.74870
Ni659      Ni  0.48923746  0.74788407  0.04250984     1.25410
Ni660      Ni  0.05338389  0.78303589  0.06261673     1.25360
C661        C  0.03196981  0.81705691  0.99914459     0.87390
C662        C  0.01035433  0.71330531  0.10529016     0.87320
C663        C  0.00836699  0.80256121  0.11041939     0.87350
C664        C  0.03496792  0.72866956  0.99461316     0.87520
O665        O  0.22050344  0.97181258  0.01312523    -0.74790
O666        O  0.29199109  0.48815494  0.10115235    -0.74820
O667        O  0.22520295  0.48363716  0.09962446    -0.74870
O668        O  0.28714029  0.97520237  0.01474659    -0.74920
O669        O  0.31654828  0.53826389  0.00314086    -0.74850
O670        O  0.25368254  0.54662772  0.08779256    -0.74830
O671        O  0.31995206  0.55107940  0.08984765    -0.74810
O672        O  0.24989843  0.53468098  0.00123735    -0.74870
Ni673      Ni  0.25521272  0.97740607  0.05742755     1.25410
Ni674      Ni  0.28607824  0.54490020  0.04502763     1.25360
C675        C  0.22269360  0.00079169  0.99401045     0.87390
C676        C  0.31761079  0.52268042  0.11019795     0.87320
C677        C  0.22918277  0.51652729  0.10733008     0.87350
C678        C  0.31242221  0.00513754  0.99588734     0.87520
O679        O  0.32868449  0.55733305  0.51807908    -0.74790
O680        O  0.25398025  0.53735613  0.60353659    -0.74820
O681        O  0.31751159  0.53499313  0.60146840    -0.74870
O682        O  0.26606038  0.56101572  0.52063257    -0.74920
O683        O  0.23339453  0.50045470  0.49685573    -0.74850
O684        O  0.28496808  0.97381666  0.57947223    -0.74830
O685        O  0.22183895  0.97639366  0.58035047    -0.74810
O686        O  0.29623256  0.49612208  0.49610202    -0.74870
Ni687      Ni  0.29270415  0.54982773  0.56168901     1.25410
Ni688      Ni  0.25790107  0.98449016  0.53726088     1.25360
C689        C  0.32497520  0.52964514  0.49375291     0.87390
C690        C  0.22554556  0.00334566  0.60571469     0.87320
C691        C  0.31020916  0.00039201  0.60354562     0.87350
C692        C  0.24085275  0.53534707  0.49612324     0.87520
O693        O  0.04403359  0.74134962  0.49326725    -0.74790
O694        O  0.06185182  0.81856543  0.57902495    -0.74820
O695        O  0.06498306  0.75327371  0.57712165    -0.74870
O696        O  0.04157063  0.80722479  0.49454810    -0.74920
O697        O  0.48230554  0.77453110  0.51559063    -0.74850
O698        O  0.00557855  0.71971419  0.59743007    -0.74830
O699        O  0.00253603  0.78482227  0.59977163    -0.74810
O700        O  0.48460972  0.70860987  0.51367198    -0.74870
Ni701      Ni  0.05526163  0.78139666  0.53526194     1.25410
Ni702      Ni  0.49162490  0.74577845  0.55721934     1.25360
C703        C  0.01151304  0.71143786  0.49092627     0.87390
C704        C  0.03506886  0.81430516  0.60325105     0.87320
C705        C  0.03899333  0.72670566  0.59953321     0.87350
C706        C  0.00820642  0.80020478  0.49215978     0.87520
O707        O  0.22089084  0.75327375  0.58727365    -0.74790
O708        O  0.29604813  0.80359534  0.50049210    -0.74820
O709        O  0.22636197  0.74174449  0.50115802    -0.74870
O710        O  0.29052743  0.81578913  0.58520515    -0.74920
O711        O  0.31351044  0.77888996  0.60311082    -0.74850
O712        O  0.25053893  0.70543727  0.51660959    -0.74830
O713        O  0.31953689  0.76724670  0.51807905    -0.74810
O714        O  0.24357793  0.71568977  0.60266529    -0.74870
Ni715      Ni  0.25748789  0.77983048  0.54313077     1.25410
Ni716      Ni  0.28247699  0.74039480  0.56087004     1.25360
C717        C  0.21969738  0.72596576  0.60900362     0.87390
C718        C  0.32036566  0.79366673  0.49520636     0.87320
C719        C  0.22891220  0.71209100  0.49399762     0.87350
C720        C  0.31342496  0.81034349  0.60660582     0.87520
C721        C  0.36544747  0.87929880  0.69940974    -0.26680
C722        C  0.38585026  0.91332181  0.67591084    -0.14750
C723        C  0.38790535  0.91114175  0.63033332     0.35880
C724        C  0.36577101  0.87604001  0.60911212    -0.26130
C725        C  0.34197311  0.84283923  0.63220064    -0.15370
C726        C  0.34308250  0.84390851  0.67804350     0.36960
N727        N  0.31969782  0.81089089  0.70378469    -0.89620
H728        H  0.36359994  0.88086245  0.73437287     0.18080
H729        H  0.36568437  0.87509625  0.57393568     0.18070
N730        N  0.41075340  0.94428213  0.60452922    -0.88650
H731        H  0.33703411  0.80511706  0.72230386     0.35450
H732        H  0.30360753  0.78656564  0.68449901     0.40540
H733        H  0.42837853  0.96806694  0.62384487     0.40160
H734        H  0.39322485  0.95082959  0.58755351     0.35050
C735        C  0.31343714  0.95650824  0.65592399    -0.26680
C736        C  0.33174225  0.99116675  0.63360502    -0.14750
C737        C  0.37068119  0.51528696  0.63863712     0.35880
C738        C  0.39052041  0.00299850  0.66307982    -0.26130
C739        C  0.37248382  0.96713469  0.68308880    -0.15370
C740        C  0.33335000  0.94456518  0.68098823     0.36960
N741        N  0.31373125  0.90905444  0.70355086    -0.89620
H742        H  0.28354553  0.93820833  0.65325700     0.18080
H743        H  0.42054494  0.52029673  0.66371553     0.18070
N744        N  0.39125361  0.55119183  0.61693105    -0.88650
H745        H  0.29840768  0.88718578  0.68082394     0.35450
H746        H  0.29502481  0.91061433  0.72481000     0.40540
H747        H  0.38247061  0.56960278  0.62839981     0.40160
H748        H  0.38594768  0.54646058  0.58364110     0.35050
C749        C  0.14610771  0.70200223  0.69518648    -0.26680
C750        C  0.12483628  0.66184384  0.69104703    -0.14750
C751        C  0.13767588  0.64294530  0.66361613     0.35880
C752        C  0.17032227  0.66449973  0.63955704    -0.26130
C753        C  0.18937445  0.70477242  0.64046707    -0.15370
C754        C  0.17772128  0.72375713  0.66947216     0.36960
N755        N  0.19757010  0.76495277  0.67234687    -0.89620
H756        H  0.13598816  0.71661646  0.71568240     0.18080
H757        H  0.17911896  0.64968109  0.61742730     0.18070
N758        N  0.11595888  0.60221632  0.65711744    -0.88650
H759        H  0.18697053  0.77410803  0.69749042     0.35450
H760        H  0.19244894  0.77505722  0.64382929     0.40540
H761        H  0.13253221  0.59071711  0.66473976     0.40160
H762        H  0.10902799  0.59664801  0.62423666     0.35050
C763        C  0.06578176  0.65492764  0.63362620    -0.26680
C764        C  0.06378696  0.65659860  0.67893072    -0.14750
C765        C  0.05234404  0.68063319  0.69794245     0.35880
C766        C  0.04244498  0.70182670  0.67127758    -0.26130
C767        C  0.04727280  0.70220906  0.62615879    -0.15370
C768        C  0.06007838  0.67902471  0.60724739     0.36960
N769        N  0.06853977  0.67948841  0.56187695    -0.89620
H770        H  0.07562707  0.63742476  0.61871486     0.18080
H771        H  0.03334870  0.72002003  0.68605551     0.18070
N772        N  0.05340601  0.68581417  0.74402868    -0.88650
H773        H  0.09692569  0.68944796  0.55925198     0.35450
H774        H  0.06385522  0.69832631  0.54440325     0.40540
H775        H  0.02702057  0.67936124  0.75421374     0.40160
H776        H  0.07191678  0.71478866  0.75115300     0.35050
C777        C  0.14084397  0.99694550  0.65704050    -0.26680
C778        C  0.13069765  0.96755492  0.68701001    -0.14750
C779        C  0.15428924  0.95271620  0.69330779     0.35880
C780        C  0.18633092  0.96605378  0.66764633    -0.26130
C781        C  0.19564796  0.99465934  0.63690524    -0.15370
C782        C  0.17312163  0.51081800  0.63270889     0.36960
N783        N  0.18073599  0.53931382  0.60125513    -0.89620
H784        H  0.12265556  0.50792909  0.65101277     0.18080
H785        H  0.20363168  0.95352602  0.67086971     0.18070
N786        N  0.14508251  0.92350537  0.72482715    -0.88650
H787        H  0.18099301  0.52776373  0.57083541     0.35450
H788        H  0.20700756  0.56300792  0.60791136     0.40540
H789        H  0.14579848  0.93541415  0.75536533     0.40160
H790        H  0.16511630  0.91546595  0.72520727     0.35050
C791        C  0.06220500  0.87736004  0.70415793    -0.26680
C792        C  0.06622228  0.91084617  0.68636059    -0.14750
C793        C  0.05380173  0.90990907  0.64370225     0.35880
C794        C  0.04189283  0.87695265  0.61793567    -0.26130
C795        C  0.04156509  0.84485042  0.63425364    -0.15370
C796        C  0.05010327  0.84418471  0.67844828     0.36960
N797        N  0.04840872  0.81128127  0.69769338    -0.89260
H798        H  0.07120084  0.87789671  0.73715332     0.18080
H799        H  0.03460574  0.87697028  0.58429073     0.18070
N800        N  0.05611814  0.94355296  0.62577140    -0.88650
H801        H  0.07545286  0.81888827  0.70625279     0.35450
H802        H  0.03880085  0.78830897  0.67574232     0.40540
H803        H  0.03796192  0.94916264  0.64330062     0.40160
H804        H  0.04681808  0.93846738  0.59362466     0.35050
C805        C  0.31203357  0.85152300  0.92881313    -0.26680
C806        C  0.33263862  0.83888819  0.95133182    -0.14750
C807        C  0.37173981  0.85822341  0.94431522     0.35880
C808        C  0.38903208  0.89284194  0.92129783    -0.26130
C809        C  0.36845122  0.90734690  0.90217256    -0.15370
C810        C  0.32930555  0.88459733  0.90363783     0.36960
N811        N  0.30672240  0.89573517  0.88095996    -0.89620
H812        H  0.28205022  0.83621000  0.93189737     0.18080
H813        H  0.41904369  0.90972891  0.92129970     0.18070
N814        N  0.39516260  0.84468860  0.96008624    -0.88650
H815        H  0.28977865  0.89897151  0.90354097     0.35450
H816        H  0.28954454  0.87347572  0.85952112     0.40540
H817        H  0.38118815  0.82116138  0.98011428     0.40160
H818        H  0.41648311  0.86656667  0.97853846     0.35050
C819        C  0.38177106  0.97884842  0.95872782    -0.26680
C820        C  0.37250803  0.97086878  0.91475180    -0.14750
C821        C  0.34804764  0.98084090  0.89586533     0.35880
C822        C  0.33072114  0.99546195  0.92266066    -0.26130
C823        C  0.33806009  0.00070404  0.96732575    -0.15370
C824        C  0.36506511  0.99385289  0.98521856     0.36960
N825        N  0.37553747  0.50087318  0.03027484    -0.89620
H826        H  0.40122654  0.97198177  0.97294244     0.18080
H827        H  0.30973274  0.00043575  0.90926343     0.18070
N828        N  0.33838828  0.97289645  0.85068468    -0.88650
H829        H  0.36591377  0.47431579  0.04479521     0.35450
H830        H  0.36333372  0.51439582  0.04641657     0.40540
H831        H  0.36210461  0.98988953  0.83236986     0.40160
H832        H  0.31908811  0.98078384  0.84238707     0.35050
C833        C  0.04107501  0.88124893  0.99022463    -0.26680
C834        C  0.03808566  0.84837102  0.97071088    -0.14750
C835        C  0.04418565  0.84771003  0.92564501     0.35880
C836        C  0.05537110  0.88100168  0.90178003    -0.26130
C837        C  0.06213122  0.91506979  0.92232428    -0.15370
C838        C  0.05314238  0.91474174  0.96639944     0.36960
N839        N  0.05847289  0.94913427  0.98721027    -0.89620
H840        H  0.03578775  0.88135110  0.02465639     0.18080
H841        H  0.06205599  0.88123810  0.86774920     0.18070
N842        N  0.04124361  0.81477696  0.90356269    -0.88650
H843        H  0.05107050  0.94427891  0.01992574     0.35450
H844        H  0.04025710  0.95607233  0.97262218     0.40540
H845        H  0.03271963  0.79170710  0.92434375     0.40160
H846        H  0.06776042  0.82231295  0.89265096     0.35050
C847        C  0.14085278  0.00270319  0.94381583    -0.26680
C848        C  0.12723313  0.97104482  0.91548200    -0.14750
C849        C  0.14842757  0.95357988  0.90821025     0.35880
C850        C  0.18058496  0.96518212  0.93282935    -0.26130
C851        C  0.19259402  0.99467750  0.96408041    -0.15370
C852        C  0.17323988  0.01494346  0.96821106     0.36960
N853        N  0.18331789  0.04584098  0.99885017    -0.89620
H854        H  0.12464898  0.01628898  0.94949387     0.18080
H855        H  0.19566218  0.95023865  0.92839725     0.18070
N856        N  0.13701287  0.92357380  0.87636916    -0.88650
H857        H  0.20551102  0.55118402  0.01840779     0.35450
H858        H  0.19125476  0.57059993  0.98114572     0.40540
H859        H  0.13360737  0.89922343  0.89180320     0.40160
H860        H  0.15841761  0.93219120  0.85375968     0.35050
C861        C  0.19360001  0.69486870  0.92114041    -0.26680
C862        C  0.19326830  0.68934414  0.96591650    -0.14750
C863        C  0.15976882  0.66242511  0.98625041     0.35880
C864        C  0.12657610  0.64606253  0.96284120    -0.26130
C865        C  0.12626310  0.65428681  0.91903913    -0.15370
C866        C  0.16029965  0.67691981  0.89707981     0.36960
N867        N  0.16083830  0.68288960  0.85111940    -0.89620
H868        H  0.21947646  0.71492236  0.90550492     0.18080
H869        H  0.10058363  0.62784430  0.97940463     0.18070
N870        N  0.15827168  0.65228563  0.03094685    -0.88650
H871        H  0.18802480  0.70089509  0.84040301     0.35450
H872        H  0.14613156  0.69659218  0.84445194     0.40540
H873        H  0.18496176  0.66388742  0.04361554     0.40160
H874        H  0.14668920  0.62256068  0.03198503     0.35050
C875        C  0.08015604  0.72599603  0.94534157    -0.26680
C876        C  0.04445243  0.70692101  0.96299353    -0.14750
C877        C  0.02133550  0.66711870  0.95420623     0.35880
C878        C  0.03589322  0.64699461  0.93232780    -0.26130
C879        C  0.07236869  0.66600542  0.91583690    -0.15370
C880        C  0.09406619  0.70638839  0.92176945     0.36960
N881        N  0.13097968  0.72799852  0.90512998    -0.89620
H882        H  0.09810294  0.75660008  0.95085745     0.18080
H883        H  0.01901741  0.61604304  0.93017042     0.18070
N884        N  0.98353662  0.64606403  0.96828431    -0.88650
H885        H  0.14913116  0.74194356  0.93112975     0.35450
H886        H  0.13234304  0.74888946  0.88452811     0.40540
H887        H  0.46920344  0.65785893  0.95386577     0.40160
H888        H  0.48289380  0.64918845  0.00180926     0.35050
C889        C  0.48762231  0.61132836  0.45828527    -0.26680
C890        C  0.48307879  0.61167022  0.41344919    -0.14750
C891        C  0.49313165  0.64665611  0.39313267     0.35880
C892        C  0.50552353  0.68005560  0.41902054    -0.26130
C893        C  0.50511659  0.67809812  0.46447448    -0.15370
C894        C  0.49564287  0.64295372  0.48425864     0.36960
N895        N  0.49172266  0.63721669  0.53034565    -0.89620
H896        H  0.47948939  0.58440985  0.47398265     0.18080
H897        H  0.51237050  0.70684895  0.40399563     0.18070
N898        N  0.48695540  0.64738867  0.34743141    -0.88650
H899        H  0.46400845  0.61659722  0.53654821     0.35450
H900        H  0.99689343  0.66174891  0.54737307     0.40540
H901        H  0.50534369  0.64183324  0.33058313     0.40160
H902        H  0.49327596  0.67479408  0.33835039     0.35050
C903        C  0.40427121  0.52545682  0.44033164    -0.26680
C904        C  0.41796009  0.55647304  0.41171717    -0.14750
C905        C  0.39846442  0.57620995  0.40788114     0.35880
C906        C  0.36765152  0.56648351  0.43424348    -0.26130
C907        C  0.35479833  0.53628253  0.46335461    -0.15370
C908        C  0.37223539  0.51443195  0.46520224     0.36960
N909        N  0.35895794  0.98284763  0.49446579    -0.89620
H910        H  0.41973797  0.51115107  0.44534161     0.18080
H911        H  0.35396429  0.58296864  0.43234005     0.18070
N912        N  0.41049856  0.60700031  0.37807844    -0.88650
H913        H  0.37610058  0.97112270  0.49354592     0.35450
H914        H  0.33298498  0.96125214  0.48319321     0.40540
H915        H  0.41613880  0.63166356  0.39565637     0.40160
H916        H  0.38859261  0.60020285  0.35678977     0.35050
C917        C  0.39502650  0.57611476  0.19129515    -0.26680
C918        C  0.41299689  0.55501743  0.18857371    -0.14750
C919        C  0.39553674  0.51928376  0.16615473     0.35880
C920        C  0.36181009  0.50704940  0.14430602    -0.26130
C921        C  0.34629450  0.53052177  0.14300129    -0.15370
C922        C  0.36194586  0.56435916  0.16860916     0.36960
N923        N  0.34501422  0.58749219  0.16991299    -0.89620
H924        H  0.40836974  0.60336513  0.20867396     0.18080
H925        H  0.34947966  0.98076943  0.12508981     0.18070
N926        N  0.41307924  0.49674073  0.16330293    -0.88650
H927        H  0.36025174  0.61169182  0.18982824     0.35450
H928        H  0.31889569  0.57121271  0.18422167     0.40540
H929        H  0.43807853  0.51228588  0.14658657     0.40160
H930        H  0.39680773  0.97155007  0.14528816     0.35050
C931        C  0.99528009  0.64673995  0.19830344    -0.26680
C932        C  0.47740649  0.61122286  0.17594654    -0.14750
C933        C  0.47557075  0.61074897  0.13035084     0.35880
C934        C  0.48846432  0.64494106  0.10833890    -0.26130
C935        C  0.50366678  0.68001475  0.13058864    -0.15370
C936        C  0.00865456  0.68141339  0.17583647     0.36960
N937        N  0.02526355  0.71750324  0.19886095    -0.89620
H938        H  0.99617415  0.64722648  0.23341259     0.18080
H939        H  0.48521651  0.64386520  0.07356260     0.18070
N940        N  0.45899545  0.57535750  0.10625570    -0.88650
H941        H  0.02677235  0.71343338  0.23200946     0.35450
H942        H  0.00770313  0.72853667  0.19554986     0.40540
H943        H  0.47860496  0.57662526  0.08420016     0.40160
H944        H  0.43660546  0.57283799  0.08859596     0.35050
C945        C  0.36403789  0.85241292  0.45482563    -0.26680
C946        C  0.35013834  0.81335528  0.46274858    -0.14750
C947        C  0.36655752  0.79473648  0.44098282     0.35880
C948        C  0.39343840  0.81413467  0.40972855    -0.26130
C949        C  0.41029712  0.85387671  0.40558714    -0.15370
C950        C  0.39548230  0.87333928  0.42863580     0.36960
N951        N  0.41420347  0.91438547  0.42914533    -0.89620
H952        H  0.35283739  0.86758690  0.47234641     0.18080
H953        H  0.40539532  0.79908784  0.39349595     0.18070
N954        N  0.35934570  0.75748833  0.45218186    -0.88650
H955        H  0.42192841  0.92403749  0.46112579     0.35450
H956        H  0.39526190  0.92236229  0.41949151     0.40540
H957        H  0.33113575  0.73819367  0.44950276     0.40160
H958        H  0.36779756  0.75834238  0.48418920     0.35050
C959        C  0.48401320  0.83869818  0.39406110    -0.26680
C960        C  0.47361308  0.86287300  0.41465478    -0.14750
C961        C  0.47905901  0.86967203  0.45969466     0.35880
C962        C  0.49165699  0.84957697  0.48384165    -0.26130
C963        C  0.49956527  0.82338614  0.46379292    -0.15370
C964        C  0.49689351  0.81870069  0.41811662     0.36960
N965        N  0.50526240  0.79284063  0.39535781    -0.89620
H966        H  0.47958349  0.83325262  0.35946868     0.18080
H967        H  0.99423988  0.85345652  0.51874359     0.18070
N968        N  0.47015802  0.89572227  0.48088423    -0.88650
H969        H  0.48062489  0.77116906  0.38123568     0.35450
H970        H  0.51433680  0.77939483  0.41635177     0.40540
H971        H  0.48810388  0.92306696  0.46873251     0.40160
H972        H  0.97533452  0.89723402  0.51419259     0.35050
C973        C  0.42523217  0.88118810  0.13114141    -0.26680
C974        C  0.42406248  0.87644354  0.17608346    -0.14750
C975        C  0.38987319  0.85067113  0.19607978     0.35880
C976        C  0.35818816  0.82832946  0.16993342    -0.26130
C977        C  0.36044427  0.83124165  0.12463159    -0.15370
C978        C  0.39377652  0.85896404  0.10528998     0.36960
N979        N  0.39577762  0.86377840  0.05919770    -0.89620
H980        H  0.45138172  0.90112543  0.11593796     0.18080
H981        H  0.33215949  0.80751940  0.18469135     0.18070
N982        N  0.38739765  0.84712815  0.24248045    -0.88650
H983        H  0.42232111  0.88566293  0.05039823     0.35450
H984        H  0.37756029  0.87306617  0.05077209     0.40540
H985        H  0.40387834  0.83631582  0.25268947     0.40160
H986        H  0.36021060  0.82734028  0.25179694     0.35050
C987        C  0.02062273  0.86633457  0.13442557    -0.26680
C988        C  0.50148890  0.82656571  0.14101333    -0.14750
C989        C  0.47411708  0.81078107  0.17362918     0.35880
C990        C  0.46506991  0.83480235  0.19682901    -0.26130
C991        C  0.48161952  0.87402253  0.18752582    -0.15370
C992        C  0.01055086  0.89019564  0.15668971     0.36960
N993        N  0.02693852  0.92974672  0.14486560    -0.89620
H994        H  0.04168812  0.87839305  0.10944059     0.18080
H995        H  0.44286155  0.82191488  0.22020205     0.18070
N996        N  0.45461152  0.77066324  0.18382084    -0.88650
H997        H  0.04510061  0.93605393  0.11876366     0.35450
H998        H  0.04329406  0.94658451  0.17085050     0.40540
H999        H  0.46494907  0.75578732  0.16665405     0.40160
H1000       H  0.42688399  0.75902611  0.17456581     0.35050
C1001       C  0.21512817  0.63356690  0.18588610    -0.26680
C1002       C  0.17599672  0.61364389  0.18399886    -0.14750
C1003       C  0.15892561  0.62880503  0.15803233     0.35880
C1004       C  0.18130563  0.66343345  0.13579728    -0.26130
C1005       C  0.22021999  0.68110340  0.13532203    -0.15370
C1006       C  0.23725240  0.66644332  0.16145511     0.36960
N1007       N  0.27705863  0.68457870  0.16238081    -0.89620
H1008       H  0.22900559  0.62255374  0.20480969     0.18080
H1009       H  0.16821329  0.67497823  0.11594804     0.18070
N1010       N  0.11940516  0.60797010  0.15167274    -0.88650
H1011       H  0.28532511  0.66999346  0.18284495     0.35450
H1012       H  0.28770577  0.71208653  0.17574809     0.40540
H1013       H  0.11227592  0.58228254  0.13548326     0.40160
H1014       H  0.11145644  0.62296934  0.13143995     0.35050
C1015       C  0.15280716  0.53063775  0.14629929    -0.26680
C1016       C  0.16651624  0.54727986  0.18717163    -0.14750
C1017       C  0.19548297  0.54446453  0.20624259     0.35880
C1018       C  0.21513872  0.53209722  0.18028685    -0.26130
C1019       C  0.20401331  0.51995541  0.13737168    -0.15370
C1020       C  0.17085829  0.51596130  0.12154573     0.36960
N1021       N  0.15715687  0.49934060  0.07933766    -0.89620
H1022       H  0.12950690  0.53147301  0.13255667     0.18080
H1023       H  0.23970806  0.53312074  0.19289620     0.18070
N1024       N  0.20445561  0.55367215  0.25140740    -0.88650
H1025       H  0.13265273  0.49906994  0.07230122     0.35450
H1026       H  0.15019981  0.47067490  0.08019783     0.40540
H1027       H  0.21269629  0.58228515  0.25744672     0.40160
H1028       H  0.22680018  0.55044384  0.25991165     0.35050
C1029       C  0.20420518  0.64885359  0.39428226    -0.26680
C1030       C  0.16702353  0.62216070  0.40286820    -0.14750
C1031       C  0.14803354  0.63061337  0.43533204     0.35880
C1032       C  0.16847202  0.66282433  0.46264483    -0.26130
C1033       C  0.20707077  0.68527920  0.45873309    -0.15370
C1034       C  0.22469222  0.67917132  0.42304970     0.36960
N1035       N  0.26400340  0.70045949  0.41813493    -0.89620
H1036       H  0.21886483  0.64235210  0.36970152     0.18080
H1037       H  0.15491205  0.66797346  0.48971197     0.18070
N1038       N  0.11006758  0.60305781  0.44553854    -0.88650
H1039       H  0.27482824  0.69370215  0.44462674     0.35450
H1040       H  0.27296067  0.72970418  0.41901146     0.40540
H1041       H  0.09337152  0.60606550  0.42287708     0.40160
H1042       H  0.10286644  0.60951628  0.47565852     0.35050
C1043       C  0.21059685  0.53379223  0.42533802    -0.26680
C1044       C  0.21903361  0.54642012  0.46870473    -0.14750
C1045       C  0.20666275  0.57031592  0.48595844     0.35880
C1046       C  0.18234958  0.57666955  0.46187591    -0.26130
C1047       C  0.17499182  0.56589992  0.41792683    -0.15370
C1048       C  0.19087378  0.54562932  0.39895568     0.36960
N1049       N  0.18880158  0.53908587  0.35295779    -0.89620
H1050       H  0.22147735  0.51688545  0.41137365     0.18080
H1051       H  0.17095965  0.59242062  0.47727444     0.18070
N1052       N  0.21929810  0.58888096  0.52759118    -0.88650
H1053       H  0.20243756  0.52447696  0.34412520     0.35450
H1054       H  0.20326726  0.56595051  0.33844996     0.40540
H1055       H  0.24722229  0.61016143  0.52438375     0.40160
H1056       H  0.20549558  0.60327144  0.53667988     0.35050
C1057       C  0.62515622  0.05940001  0.36741272     0.00200
C1058       C  0.65531480  0.08164583  0.39235747     0.00200
C1059       C  0.62617136  0.06143015  0.23068635     0.00200
C1060       C  0.65550307  0.07435664  0.20361629     0.00200
O1061       O  0.61268064  0.49256501  0.34102934    -0.74790
O1062       O  0.53075721  0.42839257  0.25546047    -0.74820
O1063       O  0.60498056  0.49040140  0.25102986    -0.74870
O1064       O  0.53108092  0.41855004  0.34046745    -0.74920
O1065       O  0.51390352  0.46021744  0.35568821    -0.74850
O1066       O  0.59417035  0.52740205  0.28882914    -0.74830
O1067       O  0.52259652  0.47708458  0.26773609    -0.74810
O1068       O  0.57409332  0.50146761  0.37570406    -0.74870
Ni1069     Ni  0.57175618  0.45432918  0.29798727     1.25410
Ni1070     Ni  0.55085427  0.49303786  0.32109969     1.25360
C1071       C  0.60665307  0.51478539  0.36707519     0.87390
C1072       C  0.51198497  0.44492919  0.24812795     0.87320
C1073       C  0.60974733  0.52392887  0.25692533     0.87350
C1074       C  0.50596240  0.42621809  0.35486342     0.87520
C1075       C  0.97448622  0.42648746  0.22270558     0.00200
C1076       C  0.96038274  0.39320994  0.19920289     0.00200
C1077       C  0.96347297  0.40026996  0.35981908     0.00200
C1078       C  0.94944311  0.37371748  0.39105225     0.00200
C1079       C  0.96650636  0.06322628  0.23183140     0.00200
C1080       C  0.95323308  0.07540094  0.20007186     0.00200
C1081       C  0.96892279  0.05191909  0.37457151     0.00200
C1082       C  0.95658311  0.07359560  0.39391283     0.00200
O1083       O  0.51276730  0.05000266  0.24323051    -0.74790
O1084       O  0.56877709  0.04880824  0.33681426    -0.74820
O1085       O  0.51153270  0.04354858  0.33477651    -0.74870
O1086       O  0.56876688  0.05192693  0.24027610    -0.74920
O1087       O  0.60874678  0.11194815  0.25439556    -0.74850
O1088       O  0.53426768  0.10447740  0.34513122    -0.74830
O1089       O  0.60830569  0.10920536  0.33964910    -0.74810
O1090       O  0.53386515  0.11069269  0.25701292    -0.74870
Ni1091     Ni  0.54028377  0.04722675  0.28869109     1.25410
Ni1092     Ni  0.57279464  0.11293015  0.29875586     1.25360
C1093       C  0.50828317  0.07807152  0.24013708     0.87390
C1094       C  0.60036957  0.07487145  0.34851291     0.87320
C1095       C  0.50820713  0.06929164  0.35287220     0.87350
C1096       C  0.60137268  0.07898052  0.23793409     0.87520
O1097       O  0.91304130  0.49477528  0.25328254    -0.74790
O1098       O  0.91177953  0.41689857  0.33808456    -0.74820
O1099       O  0.91161110  0.49065529  0.34549493    -0.74870
O1100       O  0.91769208  0.42678986  0.24777925    -0.74920
O1101       O  0.96985899  0.48007306  0.24047543    -0.74850
O1102       O  0.96067824  0.99037585  0.36289765    -0.74830
O1103       O  0.96548726  0.44165171  0.30955354    -0.74810
O1104       O  0.96138653  0.02954855  0.29089782    -0.74870
Ni1105     Ni  0.90767480  0.45410693  0.29619637     1.25410
Ni1106     Ni  0.96775995  0.48756176  0.30137361     1.25360
C1107       C  0.94274142  0.52795211  0.25977359     0.87390
C1108       C  0.94314957  0.41748415  0.33478746     0.87320
C1109       C  0.94290286  0.50731120  0.36708389     0.87350
C1110       C  0.95093403  0.44498599  0.23125168     0.87520
C1111       C  0.58997978  0.14368170  0.89923850     0.00200
C1112       C  0.57273693  0.11214821  0.87267185     0.00200
C1113       C  0.57568553  0.46891401  0.87413036     0.00200
C1114       C  0.58771957  0.45183590  0.90122541     0.00200
C1115       C  0.88694966  0.44915198  0.89085048     0.00200
C1116       C  0.92024651  0.46950662  0.87046914     0.00200
C1117       C  0.58085378  0.46908961  0.72860986     0.00200
C1118       C  0.59272452  0.44852546  0.70619396     0.00200
O1119       O  0.63545533  0.03372265  0.75761491    -0.74790
O1120       O  0.62478915  0.10449451  0.84225916    -0.74820
O1121       O  0.62960842  0.03752720  0.85113827    -0.74870
O1122       O  0.62474742  0.10356115  0.75435013    -0.74920
O1123       O  0.56735364  0.06810518  0.77208595    -0.74850
O1124       O  0.58645869  0.99715828  0.81093058    -0.74830
O1125       O  0.57148598  0.05187523  0.85105271    -0.74810
O1126       O  0.58696785  0.02926594  0.73197218    -0.74870
Ni1127     Ni  0.63446065  0.07300234  0.80073556     1.25410
Ni1128     Ni  0.57510056  0.03383991  0.79212400     1.25360
C1129       C  0.60597648  0.01414197  0.73337844     0.87390
C1130       C  0.59201648  0.08843742  0.85866183     0.87320
C1131       C  0.60183555  0.00281065  0.84556575     0.87350
C1132       C  0.59022652  0.09608645  0.75251453     0.87520
C1133       C  0.56838118  0.11209763  0.73032513     0.00200
C1134       C  0.58484256  0.14270531  0.70368804     0.00200
C1135       C  0.92392931  0.46867929  0.72482248     0.00200
C1136       C  0.89489582  0.45016554  0.69727933     0.00200
O1137       O  0.94160249  0.99761253  0.78870735    -0.74790
O1138       O  0.53170035  0.07225721  0.82553861    -0.74820
O1139       O  0.97444488  0.03005468  0.86766141    -0.74870
O1140       O  0.50860527  0.05295702  0.74759314    -0.74920
O1141       O  0.00904067  0.10596588  0.76042809    -0.74850
O1142       O  0.92951111  0.03420502  0.84429952    -0.74830
O1143       O  0.00770905  0.10444711  0.84936521    -0.74810
O1144       O  0.93736254  0.03742512  0.75022455    -0.74870
Ni1145     Ni  0.98954509  0.03554456  0.80683980     1.25410
Ni1146     Ni  0.96813362  0.07368197  0.80161195     1.25360
C1147       C  0.93100695  0.00269744  0.75452191     0.87390
C1148       C  0.53549456  0.09808722  0.84932135     0.87320
C1149       C  0.94022824  0.01475147  0.86723305     0.87350
C1150       C  0.52527928  0.08965789  0.74219634     0.87520
O1151       O  0.53735039  0.47914222  0.76179385    -0.74790
O1152       O  0.97306246  0.47942283  0.83612424    -0.74820
O1153       O  0.53006910  0.48049229  0.85032556    -0.74870
O1154       O  0.98166156  0.48122041  0.74841277    -0.74920
O1155       O  0.94124879  0.41980352  0.75210635    -0.74850
O1156       O  0.01020565  0.41931880  0.84436419    -0.74830
O1157       O  0.93714767  0.41842507  0.84053383    -0.74810
O1158       O  0.01296963  0.41816698  0.75555177    -0.74870
Ni1159     Ni  0.00610399  0.48107323  0.79916696     1.25410
Ni1160     Ni  0.97348029  0.41509277  0.79805639     1.25360
C1161       C  0.54064084  0.45240993  0.74770584     0.87390
C1162       C  0.94335975  0.45267145  0.84951213     0.87320
C1163       C  0.53455632  0.45313856  0.85974747     0.87350
C1164       C  0.95007356  0.45368548  0.73834565     0.87520
O1165       O  0.75376242  0.21230526  0.99588959    -0.74790
O1166       O  0.83172673  0.27875396  0.07494177    -0.74820
O1167       O  0.76729220  0.20970690  0.08115395    -0.74870
O1168       O  0.81822540  0.28136557  0.98976621    -0.74920
O1169       O  0.78862697  0.31187969  0.00859954    -0.74850
O1170       O  0.73544320  0.23847505  0.09757920    -0.74830
O1171       O  0.80032448  0.30746334  0.09411668    -0.74810
O1172       O  0.72387784  0.24309753  0.01297087    -0.74870
Ni1173     Ni  0.79386189  0.24445418  0.03488832     1.25410
Ni1174     Ni  0.76105540  0.27636571  0.05386685     1.25360
C1175       C  0.72565559  0.21652189  0.99222253     0.87390
C1176       C  0.82899341  0.30416707  0.09712157     0.87320
C1177       C  0.74235984  0.21159477  0.10356814     0.87350
C1178       C  0.81246698  0.30916713  0.98482819     0.87520
O1179       O  0.49938894  0.28759224  0.00248235    -0.74790
O1180       O  0.98325899  0.21032777  0.08325594    -0.74820
O1181       O  0.98149014  0.27648336  0.08752852    -0.74870
O1182       O  0.50163098  0.22150202  0.99894653    -0.74920
O1183       O  0.56128700  0.25450115  0.01817327    -0.74850
O1184       O  0.54156545  0.30955576  0.10547547    -0.74830
O1185       O  0.54294665  0.24308230  0.10300128    -0.74810
O1186       O  0.55936541  0.32042157  0.02108308    -0.74870
Ni1187     Ni  0.98926310  0.24783669  0.04248086     1.25410
Ni1188     Ni  0.55341043  0.28302086  0.06258195     1.25360
C1189       C  0.53197740  0.31696545  0.99904061     0.87390
C1190       C  0.51040136  0.21332076  0.10531149     0.87320
C1191       C  0.50837867  0.30256268  0.11034004     0.87350
C1192       C  0.53501094  0.22861683  0.99462458     0.87520
O1193       O  0.72049269  0.47177232  0.01304669    -0.74790
O1194       O  0.79202144  0.98812693  0.10117034    -0.74820
O1195       O  0.72525447  0.98365240  0.09970159    -0.74870
O1196       O  0.78715314  0.47521195  0.01473447    -0.74920
O1197       O  0.81656083  0.03825804  0.00316989    -0.74850
O1198       O  0.75375922  0.04664875  0.08789379    -0.74830
O1199       O  0.82000520  0.05105632  0.08988194    -0.74810
O1200       O  0.74993219  0.03472576  0.00133693    -0.74870
Ni1201     Ni  0.75519312  0.47740181  0.05738207     1.25410
Ni1202     Ni  0.78612407  0.04490986  0.04509422     1.25360
C1203       C  0.72267456  0.50073801  0.99390860     0.87390
C1204       C  0.81765146  0.02264665  0.11021900     0.87320
C1205       C  0.72925362  0.01654784  0.10742540     0.87350
C1206       C  0.81243399  0.50515143  0.99587969     0.87520
O1207       O  0.82868713  0.05729702  0.51802490    -0.74790
O1208       O  0.75395445  0.03732303  0.60344307    -0.74820
O1209       O  0.81749145  0.03496085  0.60141407    -0.74870
O1210       O  0.76606843  0.06097888  0.52054420    -0.74920
O1211       O  0.73339543  0.00041582  0.49677612    -0.74850
O1212       O  0.78497199  0.47384772  0.57953129    -0.74830
O1213       O  0.72185632  0.47643069  0.58043115    -0.74810
O1214       O  0.79623559  0.99608808  0.49604016    -0.74870
Ni1215     Ni  0.79269482  0.04979176  0.56161746     1.25410
Ni1216     Ni  0.75790523  0.48452673  0.53733023     1.25360
C1217       C  0.82497871  0.02961160  0.49369544     0.87390
C1218       C  0.72557606  0.50337646  0.60581414     0.87320
C1219       C  0.81021689  0.50041969  0.60360246     0.87350
C1220       C  0.74085954  0.03531008  0.49603845     0.87520
O1221       O  0.54399892  0.24128166  0.49327988    -0.74790
O1222       O  0.56183578  0.31847016  0.57907552    -0.74820
O1223       O  0.56492578  0.25315210  0.57713665    -0.74870
O1224       O  0.54157160  0.30717526  0.49459297    -0.74920
O1225       O  0.98230180  0.27449968  0.51561945    -0.74850
O1226       O  0.50551537  0.21961215  0.59742645    -0.74830
O1227       O  0.50251540  0.28474545  0.59980833    -0.74810
O1228       O  0.98456849  0.20855895  0.51366291    -0.74870
Ni1229     Ni  0.55523515  0.28131262  0.53529427     1.25410
Ni1230     Ni  0.99159248  0.24571394  0.55723237     1.25360
C1231       C  0.51147259  0.21138173  0.49092302     0.87390
C1232       C  0.53505440  0.31421813  0.60329853     0.87320
C1233       C  0.53892241  0.22658112  0.59953181     0.87350
C1234       C  0.50821315  0.30017287  0.49219863     0.87520
O1235       O  0.72085276  0.25323427  0.58721495    -0.74790
O1236       O  0.79605977  0.30359290  0.50050221    -0.74820
O1237       O  0.72637212  0.24174321  0.50110547    -0.74870
O1238       O  0.79048730  0.31574722  0.58521578    -0.74920
O1239       O  0.81345831  0.27883879  0.60312907    -0.74850
O1240       O  0.75053777  0.20542674  0.51656379    -0.74830
O1241       O  0.81953647  0.26723488  0.51809733    -0.74810
O1242       O  0.74352933  0.21564186  0.60261348    -0.74870
Ni1243     Ni  0.75747479  0.27980999  0.54310722     1.25410
Ni1244     Ni  0.78245155  0.24036429  0.56085426     1.25360
C1245       C  0.71964746  0.22591748  0.60893740     0.87390
C1246       C  0.82037761  0.29366342  0.49522966     0.87320
C1247       C  0.72892019  0.21208860  0.49394444     0.87350
C1248       C  0.81336846  0.31028952  0.60663480     0.87520
C1249       C  0.86530668  0.37923165  0.69947994    -0.26680
C1250       C  0.88575526  0.41325106  0.67598685    -0.14750
C1251       C  0.88785917  0.41106810  0.63041600     0.35880
C1252       C  0.86573664  0.37596879  0.60918580    -0.26130
C1253       C  0.84189928  0.34277328  0.63225873    -0.15370
C1254       C  0.84295012  0.34384378  0.67810348     0.36960
N1255       N  0.81952012  0.31083009  0.70382820    -0.89620
H1256       H  0.86342694  0.38079855  0.73443857     0.18080
H1257       H  0.86569080  0.37502405  0.57400991     0.18070
N1258       N  0.91074997  0.44420287  0.60462342    -0.88650
H1259       H  0.83682381  0.30504576  0.72239767     0.35450
H1260       H  0.80344929  0.28650716  0.68453082     0.40540
H1261       H  0.92836650  0.46798395  0.62394848     0.40160
H1262       H  0.89325076  0.45076566  0.58760701     0.35050
C1263       C  0.81340922  0.45654405  0.65602185    -0.26680
C1264       C  0.83173704  0.49118114  0.63366245    -0.14750
C1265       C  0.87067891  0.01531321  0.63862574     0.35880
C1266       C  0.89050555  0.50295062  0.66308699    -0.26130
C1267       C  0.87244360  0.46710471  0.68313662    -0.15370
C1268       C  0.83330672  0.44457903  0.68108124     0.36960
N1269       N  0.81366906  0.40909263  0.70368713    -0.89620
H1270       H  0.78351177  0.43827722  0.65338832     0.18080
H1271       H  0.92055721  0.02037804  0.66373989     0.18070
N1272       N  0.89123142  0.05124248  0.61696327    -0.88650
H1273       H  0.79830648  0.38721088  0.68098879     0.35450
H1274       H  0.79499733  0.41070329  0.72495857     0.40540
H1275       H  0.88240822  0.06961672  0.62844378     0.40160
H1276       H  0.88595423  0.04653702  0.58366634     0.35050
C1277       C  0.64603947  0.20193991  0.69508925    -0.26680
C1278       C  0.62479240  0.16178083  0.69096817    -0.14750
C1279       C  0.63763854  0.14288640  0.66354347     0.35880
C1280       C  0.67027814  0.16444661  0.63947819    -0.26130
C1281       C  0.68931486  0.20471889  0.64038161    -0.15370
C1282       C  0.67764701  0.22369965  0.66937222     0.36960
N1283       N  0.69747678  0.26489548  0.67223234    -0.89620
H1284       H  0.63591002  0.21654737  0.71558082     0.18080
H1285       H  0.67908569  0.14963223  0.61735672     0.18070
N1286       N  0.61593800  0.10215357  0.65706763    -0.88650
H1287       H  0.68687128  0.27404770  0.69737235     0.35450
H1288       H  0.69234247  0.27498431  0.64371101     0.40540
H1289       H  0.63252604  0.09067256  0.66469410     0.40160
H1290       H  0.60900003  0.09656852  0.62418987     0.35050
C1291       C  0.56565702  0.15475471  0.63360884    -0.26680
C1292       C  0.56370108  0.15645480  0.67891520    -0.14750
C1293       C  0.55227645  0.18050427  0.69792965     0.35880
C1294       C  0.54236886  0.20169202  0.67126826    -0.26130
C1295       C  0.54717812  0.20206131  0.62614802    -0.15370
C1296       C  0.55995734  0.17885586  0.60723096     0.36960
N1297       N  0.56840869  0.17931319  0.56185830    -0.89620
H1298       H  0.57548999  0.13724193  0.61869472     0.18080
H1299       H  0.53329319  0.21990147  0.68604987     0.18070
N1300       N  0.55337890  0.18571729  0.74401306    -0.88650
H1301       H  0.59678952  0.18924947  0.55922654     0.35450
H1302       H  0.56374469  0.19817010  0.54439381     0.40540
H1303       H  0.52700456  0.17927999  0.75422547     0.40160
H1304       H  0.57190204  0.21469464  0.75110867     0.35050
C1305       C  0.64090857  0.49696493  0.65722150    -0.26680
C1306       C  0.63071704  0.46749619  0.68709809    -0.14750
C1307       C  0.65427625  0.45260682  0.69331534     0.35880
C1308       C  0.68633323  0.46598518  0.66767432    -0.26130
C1309       C  0.69569571  0.49467524  0.63703181    -0.15370
C1310       C  0.67303891  0.01075494  0.63249760     0.36960
N1311       N  0.68062123  0.03918145  0.60096371    -0.89620
H1312       H  0.62257523  0.00788591  0.65080423     0.18080
H1313       H  0.70360541  0.45341749  0.67082594     0.18070
N1314       N  0.64501537  0.42329692  0.72471928    -0.88650
H1315       H  0.68089690  0.02759217  0.57057523     0.35450
H1316       H  0.70688077  0.06290159  0.60759912     0.40540
H1317       H  0.64571813  0.43512366  0.75530542     0.40160
H1318       H  0.66502753  0.41522656  0.72504313     0.35050
C1319       C  0.56213255  0.37726889  0.70421355    -0.26680
C1320       C  0.56623903  0.41078337  0.68638490    -0.14750
C1321       C  0.55390291  0.40987607  0.64368976     0.35880
C1322       C  0.54198360  0.37691442  0.61793137    -0.26130
C1323       C  0.54155837  0.34477456  0.63428990    -0.15370
C1324       C  0.55001515  0.34408489  0.67851077     0.36960
N1325       N  0.54822484  0.31114773  0.69779151    -0.89260
H1326       H  0.57107173  0.37778621  0.73723259     0.18080
H1327       H  0.53476100  0.37695281  0.58426443     0.18070
N1328       N  0.55631238  0.44355120  0.62572085    -0.88650
H1329       H  0.57524146  0.31870475  0.70641978     0.35450
H1330       H  0.53861890  0.28817615  0.67583960     0.40540
H1331       H  0.53815821  0.44920317  0.64319083     0.40160
H1332       H  0.54706500  0.43848351  0.59355345     0.35050
C1333       C  0.81214556  0.35159417  0.92887767    -0.26680
C1334       C  0.83275438  0.33896369  0.95139485    -0.14750
C1335       C  0.87185807  0.35831371  0.94439403     0.35880
C1336       C  0.88914510  0.39293627  0.92138335    -0.26130
C1337       C  0.86855691  0.40743196  0.90225414    -0.15370
C1338       C  0.82941237  0.38467448  0.90371474     0.36960
N1339       N  0.80682338  0.39580643  0.88104045    -0.89620
H1340       H  0.78216124  0.33627147  0.93195279     0.18080
H1341       H  0.91915687  0.40983055  0.92138503     0.18070
N1342       N  0.89528645  0.34478812  0.96017225    -0.88650
H1343       H  0.78987425  0.39903258  0.90362274     0.35450
H1344       H  0.78965153  0.37354912  0.85959613     0.40540
H1345       H  0.88130997  0.32125264  0.98018876     0.40160
H1346       H  0.91659452  0.36666436  0.97863990     0.35050
C1347       C  0.88184930  0.47893302  0.95877067    -0.26680
C1348       C  0.87260632  0.47095655  0.91478942    -0.14750
C1349       C  0.84813023  0.48090107  0.89588869     0.35880
C1350       C  0.83077965  0.49550259  0.92267149    -0.26130
C1351       C  0.83809505  0.50073560  0.96734100    -0.15370
C1352       C  0.86510651  0.49390329  0.98525285     0.36960
N1353       N  0.87552799  0.00084082  0.03023034    -0.89620
H1354       H  0.90130881  0.47207846  0.97299861     0.18080
H1355       H  0.80978405  0.50045909  0.90926147     0.18070
N1356       N  0.83846505  0.47292972  0.85071123    -0.88650
H1357       H  0.86589501  0.97428821  0.04476657     0.35450
H1358       H  0.86335399  0.01439147  0.04637712     0.40540
H1359       H  0.86217031  0.48992719  0.83238341     0.40160
H1360       H  0.81914469  0.48078751  0.84240624     0.35050
C1361       C  0.54094802  0.38108523  0.99000558    -0.26680
C1362       C  0.53808346  0.34824234  0.97055715    -0.14750
C1363       C  0.54430549  0.34759189  0.92552216     0.35880
C1364       C  0.55548465  0.38086699  0.90162839    -0.26130
C1365       C  0.56212755  0.41491169  0.92212505    -0.15370
C1366       C  0.55301634  0.41456509  0.96615714     0.36960
N1367       N  0.55823157  0.44893254  0.98691147    -0.89620
H1368       H  0.53557008  0.38117668  0.02441370     0.18080
H1369       H  0.56224461  0.38111218  0.86762310     0.18070
N1370       N  0.54148473  0.31468723  0.90350715    -0.88650
H1371       H  0.55075215  0.44406798  0.01960497     0.35450
H1372       H  0.54001554  0.45581942  0.97222473     0.40540
H1373       H  0.53294531  0.29162583  0.92430571     0.40160
H1374       H  0.56804257  0.32227372  0.89270369     0.35050
C1375       C  0.64080571  0.50256904  0.94367887    -0.26680
C1376       C  0.62721700  0.47092233  0.91533160    -0.14750
C1377       C  0.64844808  0.45349650  0.90805647     0.35880
C1378       C  0.68060126  0.46511631  0.93269535    -0.26130
C1379       C  0.69257790  0.49460064  0.96395694    -0.15370
C1380       C  0.67319448  0.51483632  0.96807835     0.36960
N1381       N  0.68324779  0.54573416  0.99870858    -0.89620
H1382       H  0.62457919  0.51612940  0.94935902     0.18080
H1383       H  0.69570445  0.45019997  0.92826452     0.18070
N1384       N  0.63708574  0.42352396  0.87618228    -0.88650
H1385       H  0.70557106  0.05126167  0.01855163     0.35450
H1386       H  0.69134882  0.07071575  0.98129555     0.40540
H1387       H  0.63370520  0.39917319  0.89159007     0.40160
H1388       H  0.65850743  0.43218786  0.85358769     0.35050
C1389       C  0.69374183  0.19497979  0.92107749    -0.26680
C1390       C  0.69340716  0.18941018  0.96584445    -0.14750
C1391       C  0.65990969  0.16246563  0.98615950     0.35880
C1392       C  0.62671902  0.14612523  0.96275129    -0.26130
C1393       C  0.62640751  0.15439252  0.91896424    -0.15370
C1394       C  0.66044354  0.17704254  0.89701232     0.36960
N1395       N  0.66098509  0.18302012  0.85105366    -0.89620
H1396       H  0.71961841  0.21505085  0.90545466     0.18080
H1397       H  0.60072672  0.12788285  0.97930338     0.18070
N1398       N  0.65841169  0.15227920  0.03083870    -0.88650
H1399       H  0.68817220  0.20103234  0.84034294     0.35450
H1400       H  0.64627461  0.19671896  0.84438896     0.40540
H1401       H  0.68510043  0.16387559  0.04351028     0.40160
H1402       H  0.64683695  0.12255371  0.03183311     0.35050
C1403       C  0.58020451  0.22599806  0.94531271    -0.26680
C1404       C  0.54451371  0.20688740  0.96299926    -0.14750
C1405       C  0.52142747  0.16708007  0.95422097     0.35880
C1406       C  0.53600792  0.14698803  0.93232149    -0.26130
C1407       C  0.57246902  0.16603642  0.91578739    -0.15370
C1408       C  0.59413153  0.20642179  0.92170949     0.36960
N1409       N  0.63102789  0.22806541  0.90502829    -0.89620
H1410       H  0.59812632  0.25660693  0.95081934     0.18080
H1411       H  0.51916141  0.11603391  0.93017946     0.18070
N1412       N  0.48363739  0.14599000  0.96832320    -0.88650
H1413       H  0.64919605  0.24203042  0.93100905     0.35450
H1414       H  0.63234661  0.24894044  0.88443531     0.40540
H1415       H  0.96927257  0.15775562  0.95391785     0.40160
H1416       H  0.98300738  0.14911850  0.00184779     0.35050
C1417       C  0.98760717  0.11128977  0.45825465    -0.26680
C1418       C  0.98308247  0.11164628  0.41341757    -0.14750
C1419       C  0.99313569  0.14663560  0.39311053     0.35880
C1420       C  0.00550953  0.18002471  0.41901001    -0.26130
C1421       C  0.00507385  0.17804814  0.46446301    -0.15370
C1422       C  0.99559262  0.14289792  0.48423679     0.36960
N1423       N  0.99162705  0.13713536  0.53031809    -0.89620
H1424       H  0.97947439  0.08436747  0.47394290     0.18080
H1425       H  0.01236431  0.20682353  0.40399328     0.18070
N1426       N  0.98697932  0.14738098  0.34740605    -0.88650
H1427       H  0.96390870  0.11650503  0.53648219     0.35450
H1428       H  0.49677293  0.16165507  0.54735392     0.40540
H1429       H  0.00538088  0.14183907  0.33056756     0.40160
H1430       H  0.99329646  0.17478710  0.33833287     0.35050
C1431       C  0.90428509  0.02543882  0.44028794    -0.26680
C1432       C  0.91796820  0.05644987  0.41166680    -0.14750
C1433       C  0.89846662  0.07617931  0.40782150     0.35880
C1434       C  0.86765096  0.06644919  0.43418091    -0.26130
C1435       C  0.85480346  0.03625268  0.46329866    -0.15370
C1436       C  0.87224837  0.01441077  0.46515601     0.36960
N1437       N  0.85893764  0.48286217  0.49450358    -0.89620
H1438       H  0.91975814  0.01114094  0.44530646     0.18080
H1439       H  0.85395807  0.08292838  0.43227134     0.18070
N1440       N  0.91049901  0.10696666  0.37801454    -0.88650
H1441       H  0.87607480  0.47113090  0.49357727     0.35450
H1442       H  0.83296290  0.46127315  0.48322767     0.40540
H1443       H  0.91613418  0.13163014  0.39558834     0.40160
H1444       H  0.88859389  0.10016392  0.35672239     0.35050
C1445       C  0.89504705  0.07607682  0.19131567    -0.26680
C1446       C  0.91304925  0.05501526  0.18854886    -0.14750
C1447       C  0.89561321  0.01928895  0.16611529     0.35880
C1448       C  0.86187924  0.00703491  0.14427752    -0.26130
C1449       C  0.84632978  0.03047697  0.14301752    -0.15370
C1450       C  0.86195083  0.06429413  0.16865736     0.36960
N1451       N  0.84497079  0.08738059  0.17001943    -0.89620
H1452       H  0.90837045  0.10331643  0.20871634     0.18080
H1453       H  0.84939318  0.48077271  0.12513736     0.18070
N1454       N  0.91317903  0.99676834  0.16325467    -0.88650
H1455       H  0.86018946  0.11156985  0.18995520     0.35450
H1456       H  0.81886049  0.07106037  0.18433407     0.40540
H1457       H  0.93817954  0.01232994  0.14654560     0.40160
H1458       H  0.89669435  0.47152035  0.14534544     0.35050
C1459       C  0.49529622  0.14675538  0.19832676    -0.26680
C1460       C  0.97745205  0.11124468  0.17595554    -0.14750
C1461       C  0.97565780  0.11077936  0.13035948     0.35880
C1462       C  0.98856304  0.14497468  0.10835472    -0.26130
C1463       C  0.00372836  0.18004042  0.13061377    -0.15370
C1464       C  0.50867652  0.18143213  0.17586723     0.36960
N1465       N  0.52525041  0.21751570  0.19890110    -0.89620
H1466       H  0.49616153  0.14723235  0.23343707     0.18080
H1467       H  0.98534727  0.14390688  0.07357547     0.18070
N1468       N  0.95911404  0.07539415  0.10625473    -0.88650
H1469       H  0.52673189  0.21343952  0.23205346     0.35450
H1470       H  0.50768216  0.22853654  0.19556027     0.40540
H1471       H  0.97874717  0.07667464  0.08422783     0.40160
H1472       H  0.93673665  0.07287008  0.08856305     0.35050
C1473       C  0.86407004  0.35241740  0.45487730    -0.26680
C1474       C  0.85016195  0.31335684  0.46278883    -0.14750
C1475       C  0.86657712  0.29473515  0.44102141     0.35880
C1476       C  0.89346575  0.31413578  0.40977622    -0.26130
C1477       C  0.91032826  0.35387868  0.40564041    -0.15370
C1478       C  0.89551714  0.37334313  0.42869234     0.36960
N1479       N  0.91424366  0.41438966  0.42920860    -0.89620
H1480       H  0.85287117  0.36759201  0.47240008     0.18080
H1481       H  0.90542058  0.29908769  0.39354181     0.18070
N1482       N  0.85934772  0.25747775  0.45220625    -0.88650
H1483       H  0.92196710  0.42403694  0.46119067     0.35450
H1484       H  0.89530592  0.42237198  0.41955583     0.40540
H1485       H  0.83113560  0.23819416  0.44951972     0.40160
H1486       H  0.86779184  0.25831814  0.48421432     0.35050
C1487       C  0.98404296  0.33869535  0.39410381    -0.26680
C1488       C  0.97364271  0.36286909  0.41470079    -0.14750
C1489       C  0.97908568  0.36966016  0.45974276     0.35880
C1490       C  0.99168069  0.34956001  0.48388647    -0.26130
C1491       C  0.99958850  0.32337021  0.46383408    -0.15370
C1492       C  0.99691978  0.31869215  0.41815641     0.36960
N1493       N  0.00528723  0.29283302  0.39539286    -0.89620
H1494       H  0.97961528  0.33325432  0.35951062     0.18080
H1495       H  0.49425947  0.35343323  0.51878942     0.18070
N1496       N  0.97018297  0.39570660  0.48093850    -0.88650
H1497       H  0.98064962  0.27116413  0.38126809     0.35450
H1498       H  0.01435983  0.27938378  0.41638411     0.40540
H1499       H  0.98813038  0.42305363  0.46879367     0.40160
H1500       H  0.47535579  0.39721173  0.51424722     0.35050
C1501       C  0.92524492  0.38123662  0.13119910    -0.26680
C1502       C  0.92408661  0.37644839  0.17613193    -0.14750
C1503       C  0.88990717  0.35065058  0.19612822     0.35880
C1504       C  0.85822414  0.32830725  0.16998273    -0.26130
C1505       C  0.86047240  0.33125820  0.12468499    -0.15370
C1506       C  0.89378715  0.35902198  0.10534976     0.36960
N1507       N  0.89576903  0.36388557  0.05926536    -0.89620
H1508       H  0.95138700  0.40120045  0.11599961     0.18080
H1509       H  0.83220447  0.30747017  0.18473551     0.18070
N1510       N  0.88743905  0.34708937  0.24252740    -0.88650
H1511       H  0.92229900  0.38580308  0.05047316     0.35450
H1512       H  0.87752468  0.37315131  0.05088756     0.40540
H1513       H  0.90393690  0.33629306  0.25272159     0.40160
H1514       H  0.86025738  0.32728319  0.25184355     0.35050
C1515       C  0.52062219  0.36633718  0.13436896    -0.26680
C1516       C  0.00148726  0.32656368  0.14093403    -0.14750
C1517       C  0.97412134  0.31077134  0.17355706     0.35880
C1518       C  0.96508643  0.33478857  0.19678977    -0.26130
C1519       C  0.98164279  0.37401688  0.18752128    -0.15370
C1520       C  0.51056491  0.39019598  0.15667295     0.36960
N1521       N  0.52696418  0.42975658  0.14488570    -0.89620
H1522       H  0.54168251  0.37840408  0.10937881     0.18080
H1523       H  0.94288335  0.32189201  0.22016770     0.18070
N1524       N  0.95461146  0.27064937  0.18373001    -0.88650
H1525       H  0.54512864  0.43607652  0.11878378     0.35450
H1526       H  0.54331817  0.44657288  0.17088317     0.40540
H1527       H  0.96494220  0.25577426  0.16654884     0.40160
H1528       H  0.92688317  0.25902015  0.17448296     0.35050
C1529       C  0.71517277  0.13358837  0.18589012    -0.26680
C1530       C  0.67604084  0.11365871  0.18399685    -0.14750
C1531       C  0.65896993  0.12879978  0.15799724     0.35880
C1532       C  0.68134936  0.16341541  0.13573830    -0.26130
C1533       C  0.72026498  0.18109667  0.13528253    -0.15370
C1534       C  0.73729724  0.16645411  0.16144295     0.36960
N1535       N  0.77710406  0.18459719  0.16238248    -0.89620
H1536       H  0.72905219  0.12259022  0.20483368     0.18080
H1537       H  0.66825700  0.17494311  0.11586146     0.18070
N1538       N  0.61945014  0.10795692  0.15163215    -0.88650
H1539       H  0.78537074  0.17002443  0.18286626     0.35450
H1540       H  0.78774397  0.21210975  0.17573291     0.40540
H1541       H  0.61232534  0.08226047  0.13546686     0.40160
H1542       H  0.61150105  0.12294134  0.13137568     0.35050
C1543       C  0.65285845  0.03062985  0.14636326    -0.26680
C1544       C  0.66657120  0.04730216  0.18722259    -0.14750
C1545       C  0.69554977  0.04451521  0.20630539     0.35880
C1546       C  0.71521464  0.03214885  0.18036694    -0.26130
C1547       C  0.70408384  0.01997684  0.13746104    -0.15370
C1548       C  0.67091823  0.01595280  0.12162910     0.36960
N1549       N  0.65721814  0.99930739  0.07942928    -0.89620
H1550       H  0.62954949  0.03144380  0.13261280     0.18080
H1551       H  0.73979250  0.03319392  0.19298189     0.18070
N1552       N  0.70452352  0.05374747  0.25146551    -0.88650
H1553       H  0.63270744  0.99902049  0.07238418     0.35450
H1554       H  0.65027292  0.97064607  0.08031113     0.40540
H1555       H  0.71274456  0.08235718  0.25748955     0.40160
H1556       H  0.72688060  0.05054296  0.25997786     0.35050
C1557       C  0.70420420  0.14884271  0.39423631    -0.26680
C1558       C  0.66702771  0.12214240  0.40283897    -0.14750
C1559       C  0.64804118  0.13059195  0.43531070     0.35880
C1560       C  0.66848000  0.16281110  0.46261131    -0.26130
C1561       C  0.70707635  0.18527739  0.45868127    -0.15370
C1562       C  0.72469265  0.17917153  0.42299108     0.36960
N1563       N  0.76400240  0.20046978  0.41806139    -0.89620
H1564       H  0.71886106  0.14234274  0.36965040     0.18080
H1565       H  0.65492463  0.16795786  0.48968544     0.18070
N1566       N  0.61008212  0.10302773  0.44553705    -0.88650
H1567       H  0.77483674  0.19371714  0.44454715     0.35450
H1568       H  0.77295308  0.22971290  0.41894070     0.40540
H1569       H  0.59337228  0.10601176  0.42287442     0.40160
H1570       H  0.60288369  0.10949587  0.47565322     0.35050
C1571       C  0.71057900  0.03374436  0.42527032    -0.26680
C1572       C  0.71904247  0.04638821  0.46862829    -0.14750
C1573       C  0.70670178  0.07030906  0.48588425     0.35880
C1574       C  0.68238286  0.07666460  0.46182047    -0.26130
C1575       C  0.67499856  0.06587951  0.41787903    -0.15370
C1576       C  0.69085772  0.04559023  0.39889950     0.36960
N1577       N  0.68877218  0.03904500  0.35290259    -0.89620
H1578       H  0.72144031  0.01682159  0.41130167     0.18080
H1579       H  0.67101280  0.09243155  0.47722570     0.18070
N1580       N  0.71937484  0.08889884  0.52749902    -0.88650
H1581       H  0.70239651  0.02442608  0.34406149     0.35450
H1582       H  0.70324516  0.06591079  0.33839918     0.40540
H1583       H  0.74729862  0.11017041  0.52425746     0.40160
H1584       H  0.70558858  0.10330444  0.53659498     0.35050
C1585       C  0.62515628  0.55941570  0.36743965     0.00200
C1586       C  0.65531026  0.58166398  0.39239207     0.00200
C1587       C  0.62614667  0.56141481  0.23069583     0.00200
C1588       C  0.65545871  0.57433494  0.20359734     0.00200
O1589       O  0.61266192  0.99254547  0.34099321    -0.74790
O1590       O  0.53073988  0.92840234  0.25541035    -0.74820
O1591       O  0.60497710  0.99040268  0.25099731    -0.74870
O1592       O  0.53105594  0.91854607  0.34041816    -0.74920
O1593       O  0.51387721  0.96021483  0.35563257    -0.74850
O1594       O  0.59416032  0.02739853  0.28879410    -0.74830
O1595       O  0.52258527  0.97709774  0.26768920    -0.74810
O1596       O  0.57407739  0.00145492  0.37566354    -0.74870
Ni1597     Ni  0.57173734  0.95432532  0.29794347     1.25410
Ni1598     Ni  0.55083927  0.99303754  0.32105685     1.25360
C1599       C  0.60663878  0.01476723  0.36704102     0.87390
C1600       C  0.51197032  0.94494255  0.24807786     0.87320
C1601       C  0.60974979  0.02393202  0.25689954     0.87350
C1602       C  0.50593717  0.92621486  0.35481212     0.87520
C1603       C  0.97446779  0.92650138  0.22265424     0.00200
C1604       C  0.96035626  0.89321458  0.19917054     0.00200
C1605       C  0.96344702  0.90026425  0.35976566     0.00200
C1606       C  0.94941421  0.87371774  0.39100348     0.00200
C1607       C  0.96647046  0.56320006  0.23183092     0.00200
C1608       C  0.95318817  0.57538606  0.20008359     0.00200
C1609       C  0.96890374  0.55193428  0.37459385     0.00200
C1610       C  0.95657250  0.57361307  0.39395477     0.00200
O1611       O  0.51273875  0.54998515  0.24325261    -0.74790
O1612       O  0.56876444  0.54880328  0.33683719    -0.74820
O1613       O  0.51151166  0.54355656  0.33480122    -0.74870
O1614       O  0.56873892  0.55189592  0.24031253    -0.74920
O1615       O  0.60871309  0.61192755  0.25439867    -0.74850
O1616       O  0.53424757  0.60448605  0.34513764    -0.74830
O1617       O  0.60828491  0.60920498  0.33965852    -0.74810
O1618       O  0.53383301  0.61067572  0.25701385    -0.74870
Ni1619     Ni  0.54025946  0.54721634  0.28871941     1.25410
Ni1620     Ni  0.57276813  0.61292180  0.29876002     1.25360
C1621       C  0.50825121  0.57805110  0.24014364     0.87390
C1622       C  0.60035705  0.57487446  0.34853266     0.87320
C1623       C  0.50818654  0.56930304  0.35288803     0.87350
C1624       C  0.60134106  0.57895545  0.23795273     0.87520
O1625       O  0.91305840  0.99480970  0.25326169    -0.74790
O1626       O  0.91176293  0.91689839  0.33802826    -0.74820
O1627       O  0.91162534  0.99065891  0.34546771    -0.74870
O1628       O  0.91767905  0.92681194  0.24771888    -0.74920
O1629       O  0.96985250  0.98008791  0.24042114    -0.74850
O1630       O  0.96066782  0.49039219  0.36294431    -0.74830
O1631       O  0.96546173  0.94162584  0.30948034    -0.74810
O1632       O  0.96136053  0.52954149  0.29091958    -0.74870
Ni1633     Ni  0.90767476  0.95412293  0.29615394     1.25410
Ni1634     Ni  0.96776280  0.98755494  0.30132509     1.25360
C1635       C  0.94276907  0.02797611  0.25976035     0.87390
C1636       C  0.94312527  0.91747040  0.33472378     0.87320
C1637       C  0.94291910  0.00730054  0.36705127     0.87350
C1638       C  0.95092063  0.94500430  0.23118968     0.87520
C1639       C  0.58984415  0.64360727  0.89931226     0.00200
C1640       C  0.57259968  0.61211335  0.87268645     0.00200
C1641       C  0.57573867  0.96897449  0.87413218     0.00200
C1642       C  0.58773591  0.95197411  0.90139099     0.00200
C1643       C  0.88685095  0.94907260  0.89079129     0.00200
C1644       C  0.92016309  0.96944570  0.87044221     0.00200
C1645       C  0.58086049  0.96917662  0.72854536     0.00200
C1646       C  0.59271663  0.94860073  0.70613069     0.00200
O1647       O  0.63540740  0.53368737  0.75768714    -0.74790
O1648       O  0.62462499  0.60440991  0.84229236    -0.74820
O1649       O  0.62950454  0.53750330  0.85118475    -0.74870
O1650       O  0.62464464  0.60353514  0.75440465    -0.74920
O1651       O  0.56717865  0.56791442  0.77181267    -0.74850
O1652       O  0.58637920  0.49712914  0.81095527    -0.74830
O1653       O  0.57125301  0.55181484  0.85091254    -0.74810
O1654       O  0.58693551  0.52916983  0.73192358    -0.74870
Ni1655     Ni  0.63434363  0.57295692  0.80078068     1.25410
Ni1656     Ni  0.57498054  0.53374959  0.79202573     1.25360
C1657       C  0.60595456  0.51406650  0.73341869     0.87390
C1658       C  0.59182968  0.58836244  0.85862383     0.87320
C1659       C  0.60175093  0.50278618  0.84559545     0.87350
C1660       C  0.59010871  0.59600692  0.75243045     0.87520
C1661       C  0.56833729  0.61213170  0.73028341     0.00200
C1662       C  0.58487279  0.64279399  0.70372339     0.00200
C1663       C  0.92397686  0.96872791  0.72479700     0.00200
C1664       C  0.89496569  0.95022362  0.69721903     0.00200
O1665       O  0.94166998  0.49764894  0.78866832    -0.74790
O1666       O  0.53176344  0.57255309  0.82520782    -0.74820
O1667       O  0.97454598  0.53013468  0.86752467    -0.74870
O1668       O  0.50850787  0.55300940  0.74738589    -0.74920
O1669       O  0.00897694  0.60601154  0.76034823    -0.74850
O1670       O  0.92952379  0.53421079  0.84428116    -0.74830
O1671       O  0.00759775  0.60445829  0.84936202    -0.74810
O1672       O  0.93728598  0.53738746  0.75020654    -0.74870
Ni1673     Ni  0.98959547  0.53566398  0.80667603     1.25410
Ni1674     Ni  0.96807132  0.57369172  0.80156518     1.25360
C1675       C  0.93099464  0.50268098  0.75451264     0.87390
C1676       C  0.53544263  0.59819829  0.84921706     0.87320
C1677       C  0.94031352  0.51480633  0.86718501     0.87350
C1678       C  0.52521117  0.58971521  0.74205577     0.87520
O1679       O  0.53739103  0.97923467  0.76183540    -0.74790
O1680       O  0.97304145  0.97941306  0.83617291    -0.74820
O1681       O  0.53012729  0.98056684  0.85033185    -0.74870
O1682       O  0.98167711  0.98126297  0.74845741    -0.74920
O1683       O  0.94128154  0.91984427  0.75208930    -0.74850
O1684       O  0.01025400  0.91938828  0.84435106    -0.74830
O1685       O  0.93713905  0.91841265  0.84050697    -0.74810
O1686       O  0.01300473  0.91825721  0.75552137    -0.74870
Ni1687     Ni  0.00612179  0.98112316  0.79920601     1.25410
Ni1688     Ni  0.97351312  0.91514146  0.79803951     1.25360
C1689       C  0.54066891  0.95250592  0.74769062     0.87390
C1690       C  0.94332386  0.95264409  0.84951019     0.87320
C1691       C  0.53461084  0.95320836  0.85974055     0.87350
C1692       C  0.95010694  0.95373004  0.73834823     0.87520
O1693       O  0.75364189  0.71225018  0.99591536    -0.74790
O1694       O  0.83166517  0.77872834  0.07489465    -0.74820
O1695       O  0.76722510  0.70969203  0.08116874    -0.74870
O1696       O  0.81810922  0.78130027  0.98972515    -0.74920
O1697       O  0.78853423  0.81183597  0.00856894    -0.74850
O1698       O  0.73539576  0.73847812  0.09761014    -0.74830
O1699       O  0.80028498  0.80745696  0.09408576    -0.74810
O1700       O  0.72377594  0.74305877  0.01300940    -0.74870
Ni1701     Ni  0.79376985  0.74441401  0.03487573     1.25410
Ni1702     Ni  0.76098614  0.77634578  0.05386886     1.25360
C1703       C  0.72553381  0.71646742  0.99226936     0.87390
C1704       C  0.82895109  0.80415304  0.09707569     0.87320
C1705       C  0.74230806  0.71159461  0.10359833     0.87350
C1706       C  0.81235691  0.80910540  0.98478263     0.87520
O1707       O  0.49937892  0.78768065  0.00255916    -0.74790
O1708       O  0.98321813  0.71033567  0.08324139    -0.74820
O1709       O  0.98147425  0.77650236  0.08759636    -0.74870
O1710       O  0.50159405  0.72157166  0.99893767    -0.74920
O1711       O  0.56124972  0.75454017  0.01816782    -0.74850
O1712       O  0.54154955  0.80954476  0.10554986    -0.74830
O1713       O  0.54290484  0.74306116  0.10299116    -0.74810
O1714       O  0.55935318  0.82048095  0.02116957    -0.74870
Ni1715     Ni  0.98923746  0.74788409  0.04250981     1.25410
Ni1716     Ni  0.55338390  0.78303587  0.06261674     1.25360
C1717       C  0.53196981  0.81705686  0.99914457     0.87390
C1718       C  0.51035434  0.71330530  0.10529019     0.87320
C1719       C  0.50836701  0.80256121  0.11041939     0.87350
C1720       C  0.53496791  0.72866952  0.99461318     0.87520
O1721       O  0.72050337  0.97181252  0.01312525    -0.74790
O1722       O  0.79199109  0.48815495  0.10115237    -0.74820
O1723       O  0.72520294  0.48363714  0.09962450    -0.74870
O1724       O  0.78714022  0.97520229  0.01474660    -0.74920
O1725       O  0.81654827  0.53826393  0.00314089    -0.74850
O1726       O  0.75368253  0.54662772  0.08779263    -0.74830
O1727       O  0.81995205  0.55107941  0.08984769    -0.74810
O1728       O  0.74989840  0.53468100  0.00123741    -0.74870
Ni1729     Ni  0.75521267  0.97740600  0.05742757     1.25410
Ni1730     Ni  0.78607823  0.54490022  0.04502768     1.25360
C1731       C  0.72269354  0.00079163  0.99401048     0.87390
C1732       C  0.81761078  0.52268043  0.11019798     0.87320
C1733       C  0.72918276  0.51652727  0.10733014     0.87350
C1734       C  0.81242213  0.00513745  0.99588733     0.87520
O1735       O  0.82868452  0.55733306  0.51807907    -0.74790
O1736       O  0.75398028  0.53735614  0.60353658    -0.74820
O1737       O  0.81751161  0.53499315  0.60146839    -0.74870
O1738       O  0.76606040  0.56101573  0.52063256    -0.74920
O1739       O  0.73339456  0.50045470  0.49685571    -0.74850
O1740       O  0.78496807  0.97381668  0.57947225    -0.74830
O1741       O  0.72183894  0.97639366  0.58035048    -0.74810
O1742       O  0.79623259  0.49612209  0.49610201    -0.74870
Ni1743     Ni  0.79270417  0.54982774  0.56168899     1.25410
Ni1744     Ni  0.75790106  0.98449017  0.53726089     1.25360
C1745       C  0.82497522  0.52964515  0.49375290     0.87390
C1746       C  0.72554554  0.00334565  0.60571470     0.87320
C1747       C  0.81020915  0.00039204  0.60354564     0.87350
C1748       C  0.74085277  0.53534707  0.49612323     0.87520
O1749       O  0.54403360  0.74134960  0.49326721    -0.74790
O1750       O  0.56185181  0.81856541  0.57902492    -0.74820
O1751       O  0.56498306  0.75327369  0.57712161    -0.74870
O1752       O  0.54157063  0.80722477  0.49454806    -0.74920
O1753       O  0.98230554  0.77453112  0.51559067    -0.74850
O1754       O  0.50557855  0.71971417  0.59743003    -0.74830
O1755       O  0.50253602  0.78482224  0.59977159    -0.74810
O1756       O  0.98460971  0.70860989  0.51367203    -0.74870
Ni1757     Ni  0.55526163  0.78139664  0.53526190     1.25410
Ni1758     Ni  0.99162490  0.74577847  0.55721938     1.25360
C1759       C  0.51151305  0.71143784  0.49092623     0.87390
C1760       C  0.53506885  0.81430513  0.60325102     0.87320
C1761       C  0.53899333  0.72670564  0.59953317     0.87350
C1762       C  0.50820643  0.80020476  0.49215975     0.87520
O1763       O  0.72089085  0.75327377  0.58727365    -0.74790
O1764       O  0.79604812  0.80359535  0.50049208    -0.74820
O1765       O  0.72636197  0.74174448  0.50115803    -0.74870
O1766       O  0.79052743  0.81578917  0.58520512    -0.74920
O1767       O  0.81351045  0.77889002  0.60311082    -0.74850
O1768       O  0.75053895  0.70543728  0.51660962    -0.74830
O1769       O  0.81953689  0.76724673  0.51807906    -0.74810
O1770       O  0.74357795  0.71568981  0.60266531    -0.74870
Ni1771     Ni  0.75748789  0.77983050  0.54313076     1.25410
Ni1772     Ni  0.78247701  0.74039483  0.56087005     1.25360
C1773       C  0.71969739  0.72596579  0.60900363     0.87390
C1774       C  0.82036565  0.79366675  0.49520636     0.87320
C1775       C  0.72891220  0.71209099  0.49399765     0.87350
C1776       C  0.81342496  0.81034355  0.60660580     0.87520
C1777       C  0.86544753  0.87929886  0.69940971    -0.26680
C1778       C  0.88585028  0.91332189  0.67591082    -0.14750
C1779       C  0.88790532  0.91114184  0.63033329     0.35880
C1780       C  0.86577097  0.87604010  0.60911208    -0.26130
C1781       C  0.84197311  0.84283930  0.63220061    -0.15370
C1782       C  0.84308256  0.84390858  0.67804347     0.36960
N1783       N  0.81969792  0.81089095  0.70378466    -0.89620
H1784       H  0.86360003  0.88086251  0.73437284     0.18080
H1785       H  0.86568430  0.87509634  0.57393565     0.18070
N1786       N  0.91075333  0.94428223  0.60452919    -0.88650
H1787       H  0.83703423  0.80511712  0.72230379     0.35450
H1788       H  0.80360761  0.78656569  0.68449899     0.40540
H1789       H  0.92837848  0.96806703  0.62384483     0.40160
H1790       H  0.89322476  0.95082968  0.58755352     0.35050
C1791       C  0.81343714  0.95650826  0.65592400    -0.26680
C1792       C  0.83174224  0.99116679  0.63360505    -0.14750
C1793       C  0.87068122  0.51528698  0.63863711     0.35880
C1794       C  0.89052040  0.00299857  0.66307989    -0.26130
C1795       C  0.87248382  0.96713474  0.68308884    -0.15370
C1796       C  0.83335000  0.94456521  0.68098825     0.36960
N1797       N  0.81373126  0.90905445  0.70355084    -0.89620
H1798       H  0.78354553  0.93820833  0.65325699     0.18080
H1799       H  0.92054496  0.52029675  0.66371553     0.18070
N1800       N  0.89125364  0.55119184  0.61693103    -0.88650
H1801       H  0.79840772  0.88718581  0.68082390     0.35450
H1802       H  0.79502481  0.91061431  0.72480998     0.40540
H1803       H  0.88247064  0.56960280  0.62839978     0.40160
H1804       H  0.88594770  0.54646058  0.58364109     0.35050
C1805       C  0.64610770  0.70200224  0.69518647    -0.26680
C1806       C  0.62483628  0.66184385  0.69104702    -0.14750
C1807       C  0.63767589  0.64294532  0.66361612     0.35880
C1808       C  0.67032229  0.66449976  0.63955704    -0.26130
C1809       C  0.68937446  0.70477244  0.64046707    -0.15370
C1810       C  0.67772128  0.72375714  0.66947215     0.36960
N1811       N  0.69757008  0.76495279  0.67234687    -0.89620
H1812       H  0.63598814  0.71661645  0.71568239     0.18080
H1813       H  0.67911898  0.64968112  0.61742730     0.18070
N1814       N  0.61595890  0.60221634  0.65711743    -0.88650
H1815       H  0.68697050  0.77410803  0.69749042     0.35450
H1816       H  0.69244893  0.77505723  0.64382928     0.40540
H1817       H  0.63253224  0.59071713  0.66473976     0.40160
H1818       H  0.60902803  0.59664802  0.62423665     0.35050
C1819       C  0.56578177  0.65492763  0.63362618    -0.26680
C1820       C  0.56378695  0.65659858  0.67893069    -0.14750
C1821       C  0.55234402  0.68063317  0.69794242     0.35880
C1822       C  0.54244497  0.70182668  0.67127754    -0.26130
C1823       C  0.54727280  0.70220903  0.62615876    -0.15370
C1824       C  0.56007839  0.67902469  0.60724736     0.36960
N1825       N  0.56853979  0.67948840  0.56187692    -0.89620
H1826       H  0.57562708  0.63742475  0.61871484     0.18080
H1827       H  0.53334868  0.72002000  0.68605546     0.18070
N1828       N  0.55340598  0.68581415  0.74402865    -0.88650
H1829       H  0.59692571  0.68944795  0.55925196     0.35450
H1830       H  0.56385524  0.69832629  0.54440321     0.40540
H1831       H  0.52702054  0.67936121  0.75421369     0.40160
H1832       H  0.57191675  0.71478864  0.75115296     0.35050
C1833       C  0.64084395  0.99694546  0.65704055    -0.26680
C1834       C  0.63069763  0.96755486  0.68701004    -0.14750
C1835       C  0.65428922  0.95271613  0.69330778     0.35880
C1836       C  0.68633090  0.96605374  0.66764632    -0.26130
C1837       C  0.69564794  0.99465932  0.63690526    -0.15370
C1838       C  0.67312166  0.51081801  0.63270887     0.36960
N1839       N  0.68073603  0.53931384  0.60125511    -0.89620
H1840       H  0.62265560  0.50792912  0.65101275     0.18080
H1841       H  0.70363166  0.95352597  0.67086968     0.18070
N1842       N  0.64508249  0.92350528  0.72482711    -0.88650
H1843       H  0.68099305  0.52776375  0.57083539     0.35450
H1844       H  0.70700760  0.56300794  0.60791134     0.40540
H1845       H  0.64579846  0.93541404  0.75536531     0.40160
H1846       H  0.66511628  0.91546586  0.72520721     0.35050
C1847       C  0.56220497  0.87735997  0.70415794    -0.26680
C1848       C  0.56622226  0.91084611  0.68636061    -0.14750
C1849       C  0.55380173  0.90990903  0.64370227     0.35880
C1850       C  0.54189283  0.87695262  0.61793567    -0.26130
C1851       C  0.54156508  0.84485038  0.63425363    -0.15370
C1852       C  0.55010324  0.84418465  0.67844827     0.36960
N1853       N  0.54840866  0.81128119  0.69769335    -0.89260
H1854       H  0.57120080  0.87789662  0.73715332     0.18080
H1855       H  0.53460576  0.87697026  0.58429073     0.18070
N1856       N  0.55611815  0.94355293  0.62577143    -0.88650
H1857       H  0.57545280  0.81888818  0.70625278     0.35450
H1858       H  0.53880080  0.78830890  0.67574229     0.40540
H1859       H  0.53796193  0.94916261  0.64330065     0.40160
H1860       H  0.54681810  0.93846737  0.59362469     0.35050
C1861       C  0.81203353  0.85152295  0.92881310    -0.26680
C1862       C  0.83263858  0.83888816  0.95133181    -0.14750
C1863       C  0.87173977  0.85822337  0.94431521     0.35880
C1864       C  0.88903204  0.89284189  0.92129779    -0.26130
C1865       C  0.86845118  0.90734684  0.90217251    -0.15370
C1866       C  0.82930550  0.88459727  0.90363778     0.36960
N1867       N  0.80672236  0.89573510  0.88095989    -0.89620
H1868       H  0.78205018  0.83620995  0.93189734     0.18080
H1869       H  0.91904364  0.90972886  0.92129966     0.18070
N1870       N  0.89516256  0.84468857  0.96008625    -0.88650
H1871       H  0.78977861  0.89897145  0.90354089     0.35450
H1872       H  0.78954449  0.87347563  0.85952106     0.40540
H1873       H  0.88118811  0.82116137  0.98011431     0.40160
H1874       H  0.91648307  0.86656665  0.97853846     0.35050
C1875       C  0.88177097  0.97884832  0.95872781    -0.26680
C1876       C  0.87250797  0.97086871  0.91475179    -0.14750
C1877       C  0.84804759  0.98084083  0.89586531     0.35880
C1878       C  0.83072108  0.99546187  0.92266065    -0.26130
C1879       C  0.83806001  0.00070394  0.96732575    -0.15370
C1880       C  0.86506502  0.99385277  0.98521856     0.36960
N1881       N  0.87553747  0.50087324  0.03027485    -0.89620
H1882       H  0.90122644  0.97198165  0.97294243     0.18080
H1883       H  0.80973268  0.00043569  0.90926341     0.18070
N1884       N  0.83838825  0.97289642  0.85068466    -0.88650
H1885       H  0.86591377  0.47431584  0.04479522     0.35450
H1886       H  0.86333372  0.51439587  0.04641659     0.40540
H1887       H  0.86210459  0.98988952  0.83236986     0.40160
H1888       H  0.81908809  0.98078383  0.84238705     0.35050
C1889       C  0.54107479  0.88124878  0.99022448    -0.26680
C1890       C  0.53808567  0.84837094  0.97071081    -0.14750
C1891       C  0.54418587  0.84771000  0.92564500     0.35880
C1892       C  0.55537131  0.88100163  0.90177998    -0.26130
C1893       C  0.56213121  0.91506969  0.92232417    -0.15370
C1894       C  0.55314216  0.91474159  0.96639926     0.36960
N1895       N  0.55847245  0.94913406  0.98721001    -0.89620
H1896       H  0.53578737  0.88135092  0.02465619     0.18080
H1897       H  0.56205633  0.88123808  0.86774920     0.18070
N1898       N  0.54124407  0.81477700  0.90356277    -0.88650
H1899       H  0.55106993  0.94427867  0.01992544     0.35450
H1900       H  0.54025667  0.95607203  0.97262176     0.40540
H1901       H  0.53272006  0.79170714  0.92434384     0.40160
H1902       H  0.56776095  0.82231309  0.89265122     0.35050
C1903       C  0.64085266  0.00270305  0.94381596    -0.26680
C1904       C  0.62723309  0.97104478  0.91548199    -0.14750
C1905       C  0.64842762  0.95357995  0.90821013     0.35880
C1906       C  0.68058500  0.96518218  0.93282926    -0.26130
C1907       C  0.69259397  0.99467745  0.96408045    -0.15370
C1908       C  0.67323975  0.01494332  0.96821120     0.36960
N1909       N  0.68331769  0.04584076  0.99885042    -0.89620
H1910       H  0.62464879  0.01628877  0.94949408     0.18080
H1911       H  0.69566228  0.95023878  0.92839708     0.18070
N1912       N  0.63701304  0.92357401  0.87636889    -0.88650
H1913       H  0.70551092  0.55118393  0.01840797     0.35450
H1914       H  0.69125461  0.57059986  0.98114598     0.40540
H1915       H  0.63360758  0.89922360  0.89180278     0.40160
H1916       H  0.65841782  0.93219156  0.85375943     0.35050
C1917       C  0.69360000  0.69486869  0.92114043    -0.26680
C1918       C  0.69326827  0.68934414  0.96591652    -0.14750
C1919       C  0.65976878  0.66242513  0.98625042     0.35880
C1920       C  0.62657607  0.64606255  0.96284120    -0.26130
C1921       C  0.62626309  0.65428681  0.91903912    -0.15370
C1922       C  0.66029964  0.67691981  0.89707981     0.36960
N1923       N  0.66083832  0.68288959  0.85111940    -0.89620
H1924       H  0.71947645  0.71492235  0.90550495     0.18080
H1925       H  0.60058359  0.62784433  0.97940462     0.18070
N1926       N  0.65827162  0.65228567  0.03094688    -0.88650
H1927       H  0.68802482  0.70089507  0.84040302     0.35450
H1928       H  0.64613158  0.69659218  0.84445192     0.40540
H1929       H  0.68496169  0.66388745  0.04361558     0.40160
H1930       H  0.64668913  0.62256071  0.03198507     0.35050
C1931       C  0.58015601  0.72599601  0.94534154    -0.26680
C1932       C  0.54445241  0.70692098  0.96299353    -0.14750
C1933       C  0.52133549  0.66711866  0.95420624     0.35880
C1934       C  0.53589321  0.64699457  0.93232780    -0.26130
C1935       C  0.57236867  0.66600540  0.91583686    -0.15370
C1936       C  0.59406615  0.70638837  0.92176939     0.36960
N1937       N  0.63097962  0.72799851  0.90512988    -0.89620
H1938       H  0.59810289  0.75660006  0.95085740     0.18080
H1939       H  0.51901741  0.61604301  0.93017042     0.18070
N1940       N  0.48353662  0.64606398  0.96828436    -0.88650
H1941       H  0.64913113  0.74194358  0.93112962     0.35450
H1942       H  0.63234296  0.74888944  0.88452800     0.40540
H1943       H  0.96920345  0.65785899  0.95386571     0.40160
H1944       H  0.98289378  0.64918849  0.00180921     0.35050
C1945       C  0.98762232  0.61132838  0.45828529    -0.26680
C1946       C  0.98307881  0.61167025  0.41344920    -0.14750
C1947       C  0.99313167  0.64665615  0.39313269     0.35880
C1948       C  0.00552354  0.68005563  0.41902058    -0.26130
C1949       C  0.00511658  0.67809814  0.46447452    -0.15370
C1950       C  0.99564287  0.64295374  0.48425867     0.36960
N1951       N  0.99172264  0.63721670  0.53034568    -0.89620
H1952       H  0.97948941  0.58440988  0.47398267     0.18080
H1953       H  0.01237050  0.70684898  0.40399567     0.18070
N1954       N  0.98695544  0.64738872  0.34743144    -0.88650
H1955       H  0.96400843  0.61659722  0.53654822     0.35450
H1956       H  0.49689346  0.66174890  0.54737303     0.40540
H1957       H  0.00534374  0.64183330  0.33058316     0.40160
H1958       H  0.99327599  0.67479413  0.33835042     0.35050
C1959       C  0.90427125  0.52545686  0.44033165    -0.26680
C1960       C  0.91796013  0.55647306  0.41171717    -0.14750
C1961       C  0.89846444  0.57620996  0.40788112     0.35880
C1962       C  0.86765153  0.56648351  0.43424346    -0.26130
C1963       C  0.85479835  0.53628254  0.46335459    -0.15370
C1964       C  0.87223543  0.51443198  0.46520225     0.36960
N1965       N  0.85895788  0.98284759  0.49446574    -0.89620
H1966       H  0.91973803  0.51115112  0.44534163     0.18080
H1967       H  0.85396429  0.58296862  0.43234001     0.18070
N1968       N  0.91049857  0.60700031  0.37807841    -0.88650
H1969       H  0.87610050  0.97112265  0.49354586     0.35450
H1970       H  0.83298492  0.96125212  0.48319316     0.40540
H1971       H  0.91613880  0.63166356  0.39565632     0.40160
H1972       H  0.88859262  0.60020283  0.35678973     0.35050
C1973       C  0.89502651  0.57611477  0.19129517    -0.26680
C1974       C  0.91299690  0.55501744  0.18857371    -0.14750
C1975       C  0.89553675  0.51928377  0.16615473     0.35880
C1976       C  0.86181010  0.50704941  0.14430603    -0.26130
C1977       C  0.84629450  0.53052177  0.14300131    -0.15370
C1978       C  0.86194586  0.56435916  0.16860918     0.36960
N1979       N  0.84501422  0.58749219  0.16991303    -0.89620
H1980       H  0.90836975  0.60336514  0.20867397     0.18080
H1981       H  0.84947963  0.98076937  0.12508981     0.18070
N1982       N  0.91307925  0.49674074  0.16330292    -0.88650
H1983       H  0.86025174  0.61169182  0.18982827     0.35450
H1984       H  0.81889569  0.57121271  0.18422171     0.40540
H1985       H  0.93807854  0.51228589  0.14658656     0.40160
H1986       H  0.89680771  0.97155002  0.14528816     0.35050
C1987       C  0.49528007  0.64673993  0.19830347    -0.26680
C1988       C  0.97740649  0.61122287  0.17594652    -0.14750
C1989       C  0.97557073  0.61074897  0.13035082     0.35880
C1990       C  0.98846429  0.64494106  0.10833887    -0.26130
C1991       C  0.00366676  0.68001476  0.13058860    -0.15370
C1992       C  0.50865455  0.68141338  0.17583651     0.36960
N1993       N  0.52526353  0.71750322  0.19886100    -0.89620
H1994       H  0.49617411  0.64722647  0.23341263     0.18080
H1995       H  0.98521647  0.64386520  0.07356257     0.18070
N1996       N  0.95899542  0.57535751  0.10625568    -0.88650
H1997       H  0.52677231  0.71343336  0.23200951     0.35450
H1998       H  0.50770311  0.72853665  0.19554989     0.40540
H1999       H  0.97860492  0.57662526  0.08420012     0.40160
H2000       H  0.93660542  0.57283799  0.08859595     0.35050
C2001       C  0.86403788  0.85241293  0.45482562    -0.26680
C2002       C  0.85013833  0.81335529  0.46274857    -0.14750
C2003       C  0.86655751  0.79473649  0.44098281     0.35880
C2004       C  0.89343839  0.81413467  0.40972854    -0.26130
C2005       C  0.91029711  0.85387671  0.40558714    -0.15370
C2006       C  0.89548230  0.87333928  0.42863579     0.36960
N2007       N  0.91420348  0.91438548  0.42914533    -0.89620
H2008       H  0.85283739  0.86758691  0.47234640     0.18080
H2009       H  0.90539530  0.79908784  0.39349595     0.18070
N2010       N  0.85934567  0.75748833  0.45218184    -0.88650
H2011       H  0.92192841  0.92403750  0.46112580     0.35450
H2012       H  0.89526191  0.92236230  0.41949151     0.40540
H2013       H  0.83113572  0.73819368  0.44950275     0.40160
H2014       H  0.86779754  0.75834238  0.48418918     0.35050
C2015       C  0.98401318  0.83869816  0.39406112    -0.26680
C2016       C  0.97361307  0.86287300  0.41465479    -0.14750
C2017       C  0.97905902  0.86967205  0.45969467     0.35880
C2018       C  0.99165699  0.84957700  0.48384166    -0.26130
C2019       C  0.99956527  0.82338615  0.46379295    -0.15370
C2020       C  0.99689349  0.81870068  0.41811665     0.36960
N2021       N  0.00526237  0.79284060  0.39535785    -0.89620
H2022       H  0.97958347  0.83325260  0.35946870     0.18080
H2023       H  0.49423986  0.85345648  0.51874358     0.18070
N2024       N  0.97015804  0.89572230  0.48088422    -0.88650
H2025       H  0.98062485  0.77116903  0.38123573     0.35450
H2026       H  0.01433677  0.77939482  0.41635182     0.40540
H2027       H  0.98810390  0.92306699  0.46873248     0.40160
H2028       H  0.47533449  0.89723398  0.51419260     0.35050
C2029       C  0.92523215  0.88118810  0.13114141    -0.26680
C2030       C  0.92406246  0.87644353  0.17608347    -0.14750
C2031       C  0.88987317  0.85067112  0.19607979     0.35880
C2032       C  0.85818815  0.82832945  0.16993343    -0.26130
C2033       C  0.86044425  0.83124164  0.12463159    -0.15370
C2034       C  0.89377650  0.85896404  0.10528999     0.36960
N2035       N  0.89577760  0.86377839  0.05919770    -0.89620
H2036       H  0.95138170  0.90112543  0.11593796     0.18080
H2037       H  0.83215947  0.80751939  0.18469136     0.18070
N2038       N  0.88739763  0.84712814  0.24248046    -0.88650
H2039       H  0.92232109  0.88566292  0.05039823     0.35450
H2040       H  0.87756027  0.87306616  0.05077209     0.40540
H2041       H  0.90387832  0.83631582  0.25268947     0.40160
H2042       H  0.86021058  0.82734027  0.25179694     0.35050
C2043       C  0.52062275  0.86633457  0.13442556    -0.26680
C2044       C  0.00148888  0.82656571  0.14101332    -0.14750
C2045       C  0.97411706  0.81078106  0.17362917     0.35880
C2046       C  0.96506989  0.83480235  0.19682901    -0.26130
C2047       C  0.98161949  0.87402252  0.18752582    -0.15370
C2048       C  0.51055088  0.89019564  0.15668971     0.36960
N2049       N  0.52693854  0.92974672  0.14486559    -0.89620
H2050       H  0.54168814  0.87839305  0.10944058     0.18080
H2051       H  0.94286153  0.82191487  0.22020205     0.18070
N2052       N  0.95461149  0.77066323  0.18382083    -0.88650
H2053       H  0.54510064  0.93605393  0.11876366     0.35450
H2054       H  0.54329408  0.94658451  0.17085050     0.40540
H2055       H  0.96494905  0.75578732  0.16665403     0.40160
H2056       H  0.92688397  0.75902611  0.17456580     0.35050
C2057       C  0.71512816  0.63356689  0.18588611    -0.26680
C2058       C  0.67599672  0.61364388  0.18399888    -0.14750
C2059       C  0.65892560  0.62880501  0.15803236     0.35880
C2060       C  0.68130562  0.66343344  0.13579732    -0.26130
C2061       C  0.72021997  0.68110339  0.13532205    -0.15370
C2062       C  0.73725239  0.66644331  0.16145512     0.36960
N2063       N  0.77705862  0.68457869  0.16238082    -0.89620
H2064       H  0.72900559  0.62255373  0.20480969     0.18080
H2065       H  0.66821327  0.67497823  0.11594809     0.18070
N2066       N  0.61940515  0.60797008  0.15167278    -0.88650
H2067       H  0.78532511  0.66999345  0.18284494     0.35450
H2068       H  0.78770576  0.71208651  0.17574810     0.40540
H2069       H  0.61227592  0.58228253  0.13548329     0.40160
H2070       H  0.61145643  0.62296932  0.13143999     0.35050
C2071       C  0.65280713  0.53063768  0.14629939    -0.26680
C2072       C  0.66651624  0.54727984  0.18717169    -0.14750
C2073       C  0.69548299  0.54446455  0.20624265     0.35880
C2074       C  0.71513874  0.53209724  0.18028691    -0.26130
C2075       C  0.70401331  0.51995539  0.13737176    -0.15370
C2076       C  0.67085826  0.51596122  0.12154584     0.36960
N2077       N  0.65715680  0.49934045  0.07933780    -0.89620
H2078       H  0.62950684  0.53147291  0.13255678     0.18080
H2079       H  0.73970811  0.53312080  0.19289624     0.18070
N2080       N  0.70445566  0.55367220  0.25140745    -0.88650
H2081       H  0.63265263  0.49906976  0.07230137     0.35450
H2082       H  0.65019976  0.47067476  0.08019802     0.40540
H2083       H  0.71269631  0.58228519  0.25744676     0.40160
H2084       H  0.72680025  0.55044393  0.25991169     0.35050
C2085       C  0.70420515  0.64885355  0.39428230    -0.26680
C2086       C  0.66702350  0.62216066  0.40286825    -0.14750
C2087       C  0.64803352  0.63061334  0.43533210     0.35880
C2088       C  0.66847201  0.66282430  0.46264489    -0.26130
C2089       C  0.70707076  0.68527917  0.45873313    -0.15370
C2090       C  0.72469220  0.67917128  0.42304974     0.36960
N2091       N  0.76400338  0.70045944  0.41813496    -0.89620
H2092       H  0.71886479  0.64235206  0.36970155     0.18080
H2093       H  0.65491205  0.66797345  0.48971203     0.18070
N2094       N  0.61006756  0.60305779  0.44553862    -0.88650
H2095       H  0.77482822  0.69370211  0.44462676     0.35450
H2096       H  0.77296065  0.72970414  0.41901147     0.40540
H2097       H  0.59337150  0.60606542  0.42287710     0.40160
H2098       H  0.60286640  0.60951632  0.47565856     0.35050
C2099       C  0.71059684  0.53379221  0.42533803    -0.26680
C2100       C  0.71903361  0.54642011  0.46870473    -0.14750
C2101       C  0.70666276  0.57031591  0.48595844     0.35880
C2102       C  0.68234956  0.57666952  0.46187593    -0.26130
C2103       C  0.67499178  0.56589988  0.41792686    -0.15370
C2104       C  0.69087375  0.54562928  0.39895570     0.36960
N2105       N  0.68880153  0.53908583  0.35295781    -0.89620
H2106       H  0.72147733  0.51688543  0.41137365     0.18080
H2107       H  0.67095963  0.59242059  0.47727448     0.18070
N2108       N  0.71929814  0.58888097  0.52759117    -0.88650
H2109       H  0.70243751  0.52447693  0.34412521     0.35450
H2110       H  0.70326720  0.56595047  0.33844998     0.40540
H2111       H  0.74722233  0.61016145  0.52438371     0.40160
H2112       H  0.70549562  0.60327145  0.53667987     0.35050
loop_ 
_geom_bond_atom_site_label_1 
_geom_bond_atom_site_label_2 
_geom_bond_distance 
_geom_bond_site_symmetry_2 
_ccdc_geom_bond_type 
C1            C2   1.352       .  D
C1           C38   1.581       .  S
C1          C543   1.563       .  S
C2          C502   1.485       .  S
C2          C519   1.508       .  S
C3            C4   1.351       .  D
C3           C40   1.546       .  S
C3          C545   1.550       .  S
C4          C474   1.507       .  S
C4          C488   1.476       .  S
O5          Ni13   2.086       .  S
O5           C15   1.316       .  A
O6          Ni13   1.978       .  S
O6           C16   1.292       .  A
O7          Ni13   2.034       .  S
O7           C17   1.280       .  A
O8          Ni13   2.057       .  S
O8           C18   1.315       .  A
O9          Ni14   1.796       .  S
O9           C18   1.243       .  A
O10         Ni14   1.914       .  S
O10          C17   1.224       .  A
O11         Ni14   1.933       .  S
O11          C16   1.285       .  A
O12         Ni14   1.888       .  S
O12          C15   1.213       .  A
Ni13        Ni14   2.261       .  S
C15         C529   1.563       .  S
C16        C1075   1.561   1_455  S
C17         C531   1.550       .  S
C18        C1077   1.545   1_455  S
C19          C20   1.362       .  D
C19          C54   1.536       .  S
C19        C1072   1.561       .  S
C20         C446   1.491       .  S
C20         C463   1.493       .  S
C21          C22   1.346       .  D
C21          C52   1.564       .  S
C21        C1074   1.545       .  S
C22         C421   1.480       .  S
C22         C432   1.494       .  S
C23          C24   1.348       .  D
C23        C1093   1.555       .  S
C23         C579   1.533       .  S
C24         C390   1.490       .  S
C24         C404   1.488       .  S
C25          C26   1.358       .  D
C25        C1095   1.572       .  S
C25         C581   1.578       .  S
C26         C362   1.484       .  S
C26         C376   1.501       .  S
O27         Ni35   1.862       .  S
O27          C37   1.251       .  A
O28         Ni35   1.890       .  S
O28          C38   1.250       .  A
O29         Ni35   1.816       .  S
O29          C39   1.246       .  A
O30         Ni35   1.857       .  S
O30          C40   1.243       .  A
O31         Ni36   2.045       .  S
O31          C40   1.304       .  A
O32         Ni36   2.048       .  S
O32          C39   1.304       .  A
O33         Ni36   2.022       .  S
O33          C38   1.290       .  A
O34         Ni36   2.049       .  S
O34          C37   1.306       .  A
Ni35        Ni36   2.307       .  S
C37        C1079   1.555   1_455  S
C39        C1081   1.572   1_455  S
O41         Ni49   2.052       .  S
O41          C51   1.297       .  A
O42         Ni49   2.076       .  S
O42          C52   1.307       .  A
O43         Ni49   2.055       .  S
O43          C53   1.307       .  A
O44         Ni49   2.014       .  S
O44          C54   1.303       .  A
O45         Ni50   1.907       .  S
O45          C54   1.254       .  A
O46        Ni578   1.931       .  S
O46         C581   1.250   1_565  A
O47         Ni50   1.838       .  S
O47          C52   1.233       .  A
O48        Ni578   1.888   1_545  S
O48         C579   1.221       .  A
Ni49        Ni50   2.170       .  S
Ni50        O574   1.931       .  S
Ni50        O576   1.888       .  S
C51         C551   1.533       .  S
C51         O576   1.221       .  A
C53         C553   1.578       .  S
C53         O574   1.250       .  A
C55          C56   1.363       .  D
C55         C337   1.488       .  S
C55         C351   1.512       .  S
C56          C74   1.596       .  S
C56          C92   1.540       .  S
C57          C58   1.347       .  D
C57         C107   1.565       .  S
C57         C603   1.532       .  S
C58         C309   1.479       .  S
C58         C320   1.489       .  S
C59          C60   1.361       .  D
C59         C281   1.505       .  S
C59         C292   1.487       .  S
C60         C106   1.575       .  S
C60         C621   1.587       .  S
C61          C62   1.351       .  D
C61         C105   1.575       .  S
C61         C601   1.577       .  S
C62         C250   1.492       .  S
C62         C264   1.480       .  S
O63         Ni71   2.077       .  S
O63          C73   1.306       .  A
O64         Ni71   1.978       .  S
O64          C74   1.286       .  A
O65         Ni71   2.073       .  S
O65          C75   1.298       .  A
O66         Ni71   2.081       .  S
O66          C76   1.319       .  A
O67         Ni72   1.707       .  S
O67          C76   1.214       .  A
O68         Ni72   1.881   1_565  S
O68          C75   1.208   1_565  A
O69         Ni72   1.983       .  S
O69          C74   1.297       .  A
O70         Ni72   1.949       .  S
O70          C73   1.231       .  A
Ni71        Ni72   2.176       .  S
C73         C589   1.577   1_545  S
C75         C585   1.532   1_545  S
C76          C77   1.536       .  S
C77          C78   1.357       .  D
C77          C94   1.596       .  S
C78         C222   1.494       .  S
C78         C236   1.486       .  S
C79          C80   1.350       .  D
C79         C108   1.563       .  S
C79         C619   1.542       .  S
C80         C194   1.486       .  S
C80         C211   1.492       .  S
O81         Ni89   1.882   1_565  S
O81          C91   1.207   1_565  A
O82       Ni1145   1.722   1_455  S
O82          C92   1.212       .  A
O83         Ni89   1.956       .  S
O83          C93   1.238       .  A
O84       Ni1145   1.981   1_455  S
O84          C94   1.294       .  A
O85         Ni90   2.000       .  S
O85        C1150   1.290       .  A
O86         Ni90   2.076       .  S
O86          C93   1.308       .  A
O87         Ni90   2.081       .  S
O87        C1148   1.316       .  A
O88         Ni90   2.085       .  S
O88          C91   1.302       .  A
Ni89       O1138   1.722       .  S
Ni89       O1140   1.981       .  S
Ni89        Ni90   2.159       .  S
C91         C607   1.542   1_545  S
C92        O1143   1.316       .  A
C93         C588   1.587   1_545  S
C94        O1141   1.290       .  A
O95       Ni1159   1.771       .  S
O95         C105   1.234       .  A
O96        Ni103   1.764       .  S
O96         C106   1.235       .  A
O97       Ni1159   1.883       .  S
O97         C107   1.256       .  A
O98        Ni103   1.878       .  S
O98         C108   1.256       .  A
O99        Ni104   2.041       .  S
O99         C108   1.305       .  A
O100       Ni104   2.046       .  S
O100       C1163   1.305       .  A
O101       Ni104   2.059       .  S
O101        C106   1.302       .  A
O102       Ni104   2.060       .  S
O102       C1161   1.301       .  A
Ni103      O1151   1.771       .  S
Ni103      O1153   1.883       .  S
Ni103      Ni104   2.300       .  S
C105       O1158   1.301       .  A
C107       O1156   1.305       .  A
O109       Ni117   1.925   1_556  S
O109        C119   1.280       .  A
O110       Ni117   1.921       .  S
O110        C120   1.282       .  A
O111       Ni117   1.924       .  S
O111        C121   1.284       .  A
O112       Ni117   1.925   1_556  S
O112        C122   1.281       .  A
O113       Ni118   1.924       .  S
O113        C122   1.285   1_554  A
O114       Ni118   1.922       .  S
O114        C121   1.280       .  A
O115       Ni118   1.921       .  S
O115        C120   1.280       .  A
O116       Ni118   1.913       .  S
O116        C119   1.280   1_554  A
Ni117      Ni118   2.388       .  S
C119        C334   1.470       .  S
C120        C449   1.474       .  S
C121        C477   1.484       .  S
C122        C278   1.492       .  S
O123      Ni1187   1.913       .  S
O123        C133   1.278   1_654  A
O124       Ni131   1.904       .  S
O124       C1190   1.280       .  A
O125       Ni131   1.929       .  S
O125       C1191   1.285       .  A
O126      Ni1187   1.931   1_456  S
O126        C136   1.283       .  A
O127       Ni132   1.914       .  S
O127        C136   1.283   1_554  A
O128       Ni132   1.911       .  S
O128        C135   1.278       .  A
O129       Ni132   1.924       .  S
O129        C134   1.281       .  A
O130       Ni132   1.917       .  S
O130        C133   1.281   1_554  A
Ni131      O1179   1.913       .  S
Ni131      O1182   1.931   1_554  S
Ni131     Ni1188   2.391       .  S
Ni132     Ni1187   2.391   1_455  S
C133        C306   1.466       .  S
C134       O1180   1.280   1_455  A
C134       C1463   1.468       .  S
C135       O1181   1.285   1_455  A
C135       C1516   1.476       .  S
C136        C348   1.489       .  S
O137       Ni145   1.927       .  S
O137        C147   1.285   1_554  A
O138       Ni673   1.926       .  S
O138        C148   1.283   1_565  A
O139       Ni673   1.908       .  S
O139        C149   1.276   1_565  A
O140       Ni145   1.906       .  S
O140        C150   1.279   1_554  A
O141       Ni146   1.923       .  S
O141        C678   1.281   1_554  A
O142       Ni146   1.914       .  S
O142        C149   1.281       .  A
O143       Ni146   1.907       .  S
O143        C148   1.280       .  A
O144       Ni146   1.913       .  S
O144        C675   1.279   1_554  A
Ni145       O666   1.926       .  S
Ni145       O667   1.908       .  S
Ni145      Ni674   2.392       .  S
Ni146      Ni673   2.392   1_545  S
C147        O672   1.279   1_556  A
C147        C323   1.481       .  S
C148        C393   1.477       .  S
C149        C491   1.458       .  S
C150        O669   1.281   1_556  A
C150        C295   1.465       .  S
O151       Ni159   1.923       .  S
O151        C161   1.283       .  A
O152       Ni159   1.927       .  S
O152        C690   1.283       .  A
O153       Ni159   1.905       .  S
O153        C691   1.277       .  A
O154       Ni159   1.900       .  S
O154        C164   1.277       .  A
O155       Ni688   1.937   1_545  S
O155        C164   1.285       .  A
O156       Ni160   1.926       .  S
O156        C163   1.285       .  A
O157       Ni160   1.909       .  S
O157        C162   1.278       .  A
O158       Ni688   1.909       .  S
O158        C161   1.278   1_565  A
Ni159      Ni688   2.389   1_545  S
Ni160       O683   1.937       .  S
Ni160       O686   1.908       .  S
Ni160      Ni687   2.389       .  S
C161        C379   1.471       .  S
C162        O680   1.283       .  A
C162        C253   1.472       .  S
C163        O681   1.277       .  A
C163        C208   1.477       .  S
C164        C516   1.482       .  S
O165       Ni173   1.923       .  S
O165        C175   1.281       .  A
O166       Ni173   1.921       .  S
O166        C176   1.283       .  A
O167       Ni173   1.914       .  S
O167        C177   1.281       .  A
O168       Ni173   1.916       .  S
O168        C178   1.279       .  A
O169       Ni174   1.919       .  S
O169       C1234   1.282       .  A
O170      Ni1230   1.919   1_455  S
O170        C177   1.281       .  A
O171      Ni1230   1.909   1_455  S
O171        C176   1.277       .  A
O172       Ni174   1.912       .  S
O172       C1231   1.280       .  A
Ni173     Ni1230   2.393   1_455  S
Ni174      O1226   1.919       .  S
Ni174      O1227   1.909       .  S
Ni174     Ni1229   2.393       .  S
C175       O1228   1.280   1_455  A
C175       C1421   1.471       .  S
C176        C267   1.465       .  S
C177        C239   1.472       .  S
C178       O1225   1.282   1_455  A
C178       C1491   1.470   1_455  S
O179       Ni187   1.923       .  S
O179        C189   1.283       .  A
O180       Ni187   1.922       .  S
O180        C190   1.283       .  A
O181       Ni187   1.913       .  S
O181        C191   1.278       .  A
O182       Ni187   1.904       .  S
O182        C192   1.279       .  A
O183       Ni188   1.925       .  S
O183        C192   1.281       .  A
O184       Ni188   1.920       .  S
O184        C191   1.283       .  A
O185       Ni188   1.906       .  S
O185        C190   1.278       .  A
O186       Ni188   1.915       .  S
O186        C189   1.280       .  A
Ni187      Ni188   2.390       .  S
C189        C225   1.480       .  S
C190        C418   1.479       .  S
C191        C505   1.470       .  S
C192        C197   1.469       .  S
C193        C194   1.407       .  A
C193        C198   1.406       .  A
C193        H200   1.084       .  S
C194        C195   1.412       .  A
C195        C196   1.394       .  A
C195        N202   1.437       .  S
C196        C197   1.401       .  A
C196        H201   1.085       .  S
C197        C198   1.414       .  A
C198        N199   1.438       .  S
N199        H203   1.045       .  S
N199        H204   1.043       .  S
N202        H205   1.044       .  S
N202        H206   1.046       .  S
C207        C208   1.400       .  A
C207        C212   1.401       .  A
C207        H214   1.084       .  S
C208        C737   1.418       .  A
C209        C736   1.418   1_545  A
C209        C738   1.398       .  A
C209        N216   1.433       .  S
C210        C211   1.403       .  A
C210        C737   1.398       .  A
C210        H743   1.084       .  S
C211        C212   1.413       .  A
C212        N213   1.432       .  S
N213        H217   1.046       .  S
N213        H218   1.045       .  S
H215        C738   1.084       .  S
N216        H219   1.045       .  S
N216        H220   1.046       .  S
C221        C222   1.405       .  A
C221        C226   1.406       .  A
C221        H228   1.084       .  S
C222        C223   1.411       .  A
C223        C224   1.404       .  A
C223        N230   1.433       .  S
C224        C225   1.405       .  A
C224        H229   1.084       .  S
C225        C226   1.411       .  A
C226        N227   1.438       .  S
N227        H231   1.046       .  S
N227        H232   1.045       .  S
N230        H233   1.046       .  S
N230        H234   1.046       .  S
C235        C236   1.402       .  A
C235        C240   1.394       .  A
C235        H242   1.084       .  S
C236        C237   1.409       .  A
C237        C238   1.407       .  A
C237        N244   1.431       .  S
C238        C239   1.404       .  A
C238        H243   1.084       .  S
C239        C240   1.418       .  A
C240        N241   1.440       .  S
N241        H245   1.046       .  S
N241        H246   1.040       .  S
N244        H247   1.046       .  S
N244        H248   1.045       .  S
C249        C250   1.403       .  A
C249        C782   1.391       .  A
C249        H784   1.083       .  S
C250        C251   1.412       .  A
C251        C252   1.407       .  A
C251        N258   1.436       .  S
C252        C253   1.402       .  A
C252        H257   1.084       .  S
C253        C782   1.408       .  A
C254        C777   1.392   1_545  A
C254        C781   1.408   1_545  A
C254        N255   1.426       .  S
N255        H259   1.045       .  S
N255        H260   1.045       .  S
H256        C777   1.083   1_545  S
N258        H261   1.046       .  S
N258        H262   1.046       .  S
C263        C264   1.402       .  A
C263        C268   1.404       .  A
C263        H270   1.083       .  S
C264        C265   1.411       .  A
C265        C266   1.399       .  A
C265        N272   1.438       .  S
C266        C267   1.398       .  A
C266        H271   1.084       .  S
C267        C268   1.416       .  A
C268        N269   1.438       .  S
N269        H273   1.046       .  S
N269        H274   1.044       .  S
N272        H275   1.045       .  S
N272        H276   1.046       .  S
C277        C278   1.401       .  A
C277        C282   1.400       .  A
C277        H284   1.085       .  S
C278        C279   1.426       .  A
C279        C280   1.409       .  A
C279        N286   1.439       .  S
C280        C281   1.406       .  A
C280        H285   1.082       .  S
C281        C282   1.413       .  A
C282        N283   1.430       .  S
N283        H287   1.046       .  S
N283        H288   1.045       .  S
N286        H289   1.038       .  S
N286        H290   1.043       .  S
C291        C292   1.400       .  A
C291        C296   1.394       .  A
C291        H298   1.084       .  S
C292        C293   1.412       .  A
C293        C294   1.408       .  A
C293        N300   1.438       .  S
C294        C295   1.402       .  A
C294        H299   1.084       .  S
C295        C296   1.414       .  A
C296        N825   1.438   1_556  S
N297        C824   1.438   1_544  S
N297        H301   1.045   1_545  S
N297        H302   1.043       .  S
N300        H303   1.043       .  S
N300        H304   1.046       .  S
C305        C306   1.401       .  A
C305        C310   1.402       .  A
C305        H312   1.084   1_556  S
C306        C307   1.414       .  A
C307        C308   1.402       .  A
C307        N314   1.439       .  S
C308        C309   1.403       .  A
C308        H313   1.084       .  S
C309        C310   1.407       .  A
C310        N311   1.437       .  S
N311        H315   1.046   1_556  S
N311        H316   1.046       .  S
N314        H317   1.044       .  S
N314        H318   1.046       .  S
C319        C320   1.400       .  A
C319        C324   1.402       .  A
C319        H326   1.084       .  S
C320        C321   1.407       .  A
C321        C322   1.402       .  A
C321        N328   1.431       .  S
C322        C323   1.403       .  A
C322        H327   1.084       .  S
C323        C324   1.425       .  A
C324        N325   1.439       .  S
N325        H857   1.039   1_556  S
N325        H858   1.045       .  S
N328        H331   1.046       .  S
N328        H332   1.046       .  S
H329        N853   1.039   1_554  S
H330        N853   1.045       .  S
C333        C334   1.402       .  A
C333        C338   1.409       .  A
C333        H340   1.084       .  S
C334        C335   1.414       .  A
C335        C336   1.396       .  A
C335        N342   1.437   1_556  S
C336        C337   1.399       .  A
C336        H341   1.084       .  S
C337        C338   1.416       .  A
C338        N339   1.440       .  S
N339        H343   1.045       .  S
N339        H344   1.043       .  S
N342        H345   1.042       .  S
N342        H346   1.046       .  S
C347        C348   1.398       .  A
C347        C352   1.398       .  A
C347        H354   1.084       .  S
C348        C349   1.417       .  A
C349        C350   1.409       .  A
C349        N356   1.431   1_455  S
C350        C351   1.410       .  A
C350        H355   1.082       .  S
C351        C352   1.419       .  A
C352        N353   1.429       .  S
N353        H357   1.046       .  S
N353        H358   1.045       .  S
N356       H1415   1.045       .  S
N356       H1416   1.042   1_556  S
H359       N1412   1.045       .  S
H360       N1412   1.042   1_554  S
C361        C362   1.398       .  A
C361        C366   1.390       .  A
C361        H368   1.085       .  S
C362        C363   1.414       .  A
C363        C364   1.413       .  A
C363        N370   1.438       .  S
C364        C365   1.405       .  A
C364        H369   1.084       .  S
C365       C1231   1.471       .  S
C365        C366   1.418       .  A
C366        N367   1.439       .  S
N367        H371   1.046       .  S
N367       H1428   1.038       .  S
N370        H373   1.042       .  S
N370        H374   1.046       .  S
H372       N1423   1.038       .  S
C375        C376   1.408       .  A
C375        C380   1.406       .  A
C375        H382   1.082       .  S
C376        C377   1.414       .  A
C377        C378   1.401       .  A
C377        N384   1.431       .  S
C378        C379   1.397       .  A
C378        H383   1.084       .  S
C379        C380   1.411       .  A
C380        N909   1.438   1_545  S
N381        C908   1.438       .  S
N381        H385   1.046       .  S
N381        H386   1.045       .  S
N384        H387   1.046       .  S
N384        H388   1.045       .  S
C389        C390   1.402       .  A
C389        C394   1.401       .  A
C389        H396   1.084       .  S
C390        C391   1.416       .  A
C391        C392   1.408       .  A
C391        N398   1.439   1_545  S
C392        C393   1.403       .  A
C392        H925   1.083   1_545  S
C393        C394   1.411       .  A
C394        N395   1.438       .  S
N395        H399   1.046       .  S
N395        H400   1.046       .  S
H397        C920   1.083       .  S
N398        H401   1.044   1_565  S
N398        H930   1.046       .  S
H402        N926   1.046       .  S
C403        C408   1.412   1_655  A
C403       C1460   1.409       .  A
C403        H410   1.083       .  S
C404        C405   1.408       .  A
C404       C1459   1.409       .  A
C405        C406   1.391       .  A
C405        N412   1.432       .  S
C406        C407   1.396       .  A
C406        H411   1.079       .  S
C407       C1190   1.468       .  S
C407       C1464   1.408       .  A
C408       C1463   1.408       .  A
C408        N409   1.437       .  S
N409        H413   1.046       .  S
N409        H414   1.046       .  S
N412        H415   1.045       .  S
N412        H416   1.046       .  S
C417        C418   1.406       .  A
C417        C422   1.405       .  A
C417        H424   1.084       .  S
C418        C419   1.417       .  A
C419        C420   1.386       .  A
C419        N426   1.430       .  S
C420        C421   1.399       .  A
C420        H425   1.085       .  S
C421        C422   1.413       .  A
C422        N423   1.433       .  S
N423        H427   1.046       .  S
N423        H428   1.046       .  S
N426        H429   1.034       .  S
N426        H430   1.045       .  S
C431        C432   1.404       .  A
C431        C436   1.405       .  A
C431        H438   1.084       .  S
C432        C433   1.409       .  A
C433        C434   1.401       .  A
C433        N440   1.437       .  S
C434        C435   1.400       .  A
C434       H1495   1.084       .  S
C435       C1234   1.470       .  S
C435        C436   1.416       .  A
C436        N437   1.439       .  S
N437        H441   1.046       .  S
N437        H442   1.043       .  S
H439       C1490   1.084       .  S
N440        H443   1.046       .  S
N440       H1500   1.046       .  S
H444       N1496   1.046       .  S
C445        C446   1.400       .  A
C445        C450   1.400       .  A
C445        H452   1.084       .  S
C446        C447   1.416       .  A
C447        C448   1.412       .  A
C447        N454   1.439       .  S
C448        C449   1.403       .  A
C448        H453   1.084       .  S
C449        C450   1.406       .  A
C450        N451   1.434       .  S
N451        H455   1.046       .  S
N451        H456   1.046       .  S
N454        H457   1.042       .  S
N454        H458   1.045       .  S
C459        C464   1.408       .  A
C459       C1516   1.405       .  A
C459        H466   1.084       .  S
C460       C1191   1.476       .  S
C460        C461   1.412       .  A
C460       C1515   1.405       .  A
C461        C462   1.400       .  A
C461        N468   1.438       .  S
C462        C463   1.407       .  A
C462        H467   1.080       .  S
C463       C1520   1.414       .  A
C464       C1519   1.414   1_455  A
C464        N465   1.438       .  S
N465        H469   1.046       .  S
N465        H470   1.044       .  S
N468        H471   1.043       .  S
N468        H472   1.046       .  S
C473        C474   1.411       .  A
C473        C478   1.402       .  A
C473        H480   1.076       .  S
C474        C475   1.416       .  A
C475        C476   1.414       .  A
C475        N482   1.436       .  S
C476        C477   1.407       .  A
C476        H481   1.083       .  S
C477        C478   1.404       .  A
C478        N479   1.439       .  S
N479        H483   1.046       .  S
N479        H484   1.046       .  S
N482        H485   1.045       .  S
N482        H486   1.046       .  S
C487        C488   1.400       .  A
C487        C492   1.397       .  A
C487        H494   1.084       .  S
C488        C489   1.409       .  A
C489        C490   1.406       .  A
C489        N496   1.438       .  S
C490        C491   1.401       .  A
C490        H495   1.084       .  S
C491        C492   1.404       .  A
C492        N493   1.437   1_545  S
N493        H497   1.046       .  S
N493        H498   1.045       .  S
N496        H499   1.042       .  S
N496        H500   1.046       .  S
C501        C502   1.396       .  A
C501        C506   1.390       .  A
C501        H508   1.085       .  S
C502        C503   1.419       .  A
C503        C504   1.407       .  A
C503        N510   1.437       .  S
C504        C505   1.398       .  A
C504        H509   1.084       .  S
C505        C506   1.410       .  A
C506        N507   1.425       .  S
N507        H511   1.043       .  S
N507        H512   1.046       .  S
N510        H513   1.044       .  S
N510        H514   1.046       .  S
C515        C516   1.406       .  A
C515        C520   1.415       .  A
C515        H522   1.083       .  S
C516        C517   1.410       .  A
C517        C518   1.393       .  A
C517        N524   1.438       .  S
C518        C519   1.404       .  A
C518        H523   1.078       .  S
C519        C520   1.416       .  A
C520        N521   1.434       .  S
N521        H525   1.046       .  S
N521        H526   1.045       .  S
N524        H527   1.045       .  S
N524        H528   1.046       .  S
C529        C530   1.352       .  D
C529        C566   1.582       .  S
C530       C1030   1.485       .  S
C530       C1047   1.508       .  S
C531        C532   1.351       .  D
C531        C568   1.546       .  S
C532       C1002   1.507       .  S
C532       C1016   1.476       .  S
O533       Ni541   2.086       .  S
O533        C543   1.316   1_565  A
O534       Ni541   1.978       .  S
O534        C544   1.292       .  A
O535       Ni541   2.034       .  S
O535        C545   1.280   1_565  A
O536       Ni541   2.057       .  S
O536        C546   1.315       .  A
O537       Ni542   1.796       .  S
O537        C546   1.243       .  A
O538       Ni542   1.914   1_545  S
O538        C545   1.224       .  A
O539       Ni542   1.933       .  S
O539        C544   1.285       .  A
O540       Ni542   1.888   1_545  S
O540        C543   1.213       .  A
Ni541      Ni542   2.261       .  S
C544       C1603   1.562   1_455  S
C546       C1605   1.545   1_455  S
C547        C548   1.362       .  D
C547       C1600   1.562       .  S
C547        C582   1.536       .  S
C548        C974   1.491       .  S
C548        C991   1.493       .  S
C549        C550   1.346       .  D
C549       C1602   1.545       .  S
C549        C580   1.563       .  S
C550        C949   1.480       .  S
C550        C960   1.494       .  S
C551        C552   1.348       .  D
C551       C1621   1.555       .  S
C552        C918   1.490       .  S
C552        C932   1.488       .  S
C553        C554   1.358       .  D
C553       C1623   1.572       .  S
C554        C890   1.484       .  S
C554        C904   1.501       .  S
O555       Ni563   1.862       .  S
O555        C565   1.251       .  A
O556       Ni563   1.890       .  S
O556        C566   1.250       .  A
O557       Ni563   1.816       .  S
O557        C567   1.246       .  A
O558       Ni563   1.857       .  S
O558        C568   1.243       .  A
O559       Ni564   2.045       .  S
O559        C568   1.304       .  A
O560       Ni564   2.048       .  S
O560        C567   1.304       .  A
O561       Ni564   2.022       .  S
O561        C566   1.290       .  A
O562       Ni564   2.049       .  S
O562        C565   1.306       .  A
Ni563      Ni564   2.307       .  S
C565       C1607   1.555   1_455  S
C567       C1609   1.572   1_455  S
O569       Ni577   2.052       .  S
O569        C579   1.297   1_565  A
O570       Ni577   2.076       .  S
O570        C580   1.307       .  A
O571       Ni577   2.055       .  S
O571        C581   1.307   1_565  A
O572       Ni577   2.014       .  S
O572        C582   1.303       .  A
O573       Ni578   1.907       .  S
O573        C582   1.254       .  A
O575       Ni578   1.838       .  S
O575        C580   1.233       .  A
Ni577      Ni578   2.171       .  S
C583        C584   1.363       .  D
C583        C865   1.488       .  S
C583        C879   1.512       .  S
C584        C602   1.596       .  S
C584        C620   1.539       .  S
C585        C586   1.347       .  D
C585        C635   1.565       .  S
C586        C837   1.480       .  S
C586        C848   1.489       .  S
C587        C588   1.361       .  D
C587        C809   1.505       .  S
C587        C820   1.487       .  S
C588        C634   1.576       .  S
C589        C590   1.351       .  D
C589        C633   1.575       .  S
C590        C778   1.492       .  S
C590        C792   1.480       .  S
O591       Ni599   2.077       .  S
O591        C601   1.306       .  A
O592       Ni599   1.978       .  S
O592        C602   1.286       .  A
O593       Ni599   2.073       .  S
O593        C603   1.298       .  A
O594       Ni599   2.081       .  S
O594        C604   1.320       .  A
O595       Ni600   1.707       .  S
O595        C604   1.214       .  A
O596       Ni600   1.881       .  S
O596        C603   1.208       .  A
O597       Ni600   1.983       .  S
O597        C602   1.297       .  A
O598       Ni600   1.949       .  S
O598        C601   1.231       .  A
Ni599      Ni600   2.177       .  S
C604        C605   1.537       .  S
C605        C606   1.357       .  D
C605        C622   1.596       .  S
C606        C750   1.495       .  S
C606        C764   1.486       .  S
C607        C608   1.350       .  D
C607        C636   1.563       .  S
C608        C722   1.486       .  S
C608        C739   1.492       .  S
O609       Ni617   1.881       .  S
O609        C619   1.207       .  A
O610      Ni1673   1.723   1_455  S
O610        C620   1.212       .  A
O611       Ni617   1.956       .  S
O611        C621   1.238       .  A
O612      Ni1673   1.980   1_455  S
O612        C622   1.294       .  A
O613       Ni618   2.001       .  S
O613       C1678   1.290       .  A
O614       Ni618   2.075       .  S
O614        C621   1.308       .  A
O615       Ni618   2.081       .  S
O615       C1676   1.316       .  A
O616       Ni618   2.086       .  S
O616        C619   1.303       .  A
Ni617      O1666   1.723       .  S
Ni617      O1668   1.980       .  S
Ni617      Ni618   2.158       .  S
C620       O1671   1.316       .  A
C622       O1669   1.290       .  A
O623      Ni1687   1.771       .  S
O623        C633   1.234       .  A
O624       Ni631   1.765       .  S
O624        C634   1.235       .  A
O625      Ni1687   1.882       .  S
O625        C635   1.256       .  A
O626       Ni631   1.878       .  S
O626        C636   1.256       .  A
O627       Ni632   2.041       .  S
O627        C636   1.305       .  A
O628       Ni632   2.047       .  S
O628       C1691   1.305       .  A
O629       Ni632   2.059       .  S
O629        C634   1.302       .  A
O630       Ni632   2.060       .  S
O630       C1689   1.301       .  A
Ni631      O1679   1.771       .  S
Ni631      O1681   1.882       .  S
Ni631      Ni632   2.300       .  S
C633       O1686   1.301       .  A
C635       O1684   1.305       .  A
O637       Ni645   1.925   1_556  S
O637        C647   1.280       .  A
O638       Ni645   1.921       .  S
O638        C648   1.282       .  A
O639       Ni645   1.924       .  S
O639        C649   1.284       .  A
O640       Ni645   1.925   1_556  S
O640        C650   1.281       .  A
O641       Ni646   1.924       .  S
O641        C650   1.285   1_554  A
O642       Ni646   1.922       .  S
O642        C649   1.280       .  A
O643       Ni646   1.922       .  S
O643        C648   1.280       .  A
O644       Ni646   1.913       .  S
O644        C647   1.280   1_554  A
Ni645      Ni646   2.388       .  S
C647        C862   1.471       .  S
C648        C977   1.474       .  S
C649       C1005   1.484       .  S
C650        C806   1.492       .  S
O651      Ni1715   1.914       .  S
O651        C661   1.278   1_654  A
O652       Ni659   1.905       .  S
O652       C1718   1.280       .  A
O653       Ni659   1.929       .  S
O653       C1719   1.285       .  A
O654      Ni1715   1.931   1_456  S
O654        C664   1.283       .  A
O655       Ni660   1.914       .  S
O655        C664   1.283   1_554  A
O656       Ni660   1.911       .  S
O656        C663   1.278       .  A
O657       Ni660   1.924       .  S
O657        C662   1.281       .  A
O658       Ni660   1.917       .  S
O658        C661   1.281   1_554  A
Ni659      O1707   1.914       .  S
Ni659      O1710   1.931   1_554  S
Ni659     Ni1716   2.391       .  S
Ni660     Ni1715   2.391   1_455  S
C661        C834   1.466       .  S
C662       O1708   1.280   1_455  A
C662       C1991   1.468       .  S
C663       O1709   1.285   1_455  A
C663       C2044   1.476       .  S
C664        C876   1.489       .  S
O665       Ni673   1.927       .  S
O665        C675   1.285   1_564  A
O666        C676   1.283       .  A
O667        C677   1.276       .  A
O668       Ni673   1.906       .  S
O668        C678   1.279   1_564  A
O669       Ni674   1.923       .  S
O670       Ni674   1.914       .  S
O670        C677   1.281       .  A
O671       Ni674   1.907       .  S
O671        C676   1.280       .  A
O672       Ni674   1.913       .  S
C675        C851   1.481   1_545  S
C676        C921   1.478       .  S
C677       C1019   1.458       .  S
C678        C823   1.465       .  S
O679       Ni687   1.923       .  S
O679        C689   1.283       .  A
O680       Ni687   1.927       .  S
O681       Ni687   1.905       .  S
O682       Ni687   1.900       .  S
O682        C692   1.277       .  A
O683        C692   1.285       .  A
O684       Ni688   1.926       .  S
O684        C691   1.285   1_565  A
O685       Ni688   1.909       .  S
O685        C690   1.278   1_565  A
O686        C689   1.278       .  A
C689        C907   1.471       .  S
C690        C781   1.472   1_545  S
C691        C736   1.477   1_545  S
C692       C1044   1.482       .  S
O693       Ni701   1.923       .  S
O693        C703   1.281       .  A
O694       Ni701   1.921       .  S
O694        C704   1.283       .  A
O695       Ni701   1.914       .  S
O695        C705   1.280       .  A
O696       Ni701   1.916       .  S
O696        C706   1.279       .  A
O697       Ni702   1.919       .  S
O697       C1762   1.282       .  A
O698      Ni1758   1.919   1_455  S
O698        C705   1.281       .  A
O699      Ni1758   1.909   1_455  S
O699        C704   1.277       .  A
O700       Ni702   1.912       .  S
O700       C1759   1.280       .  A
Ni701     Ni1758   2.393   1_455  S
Ni702      O1754   1.919       .  S
Ni702      O1755   1.909       .  S
Ni702     Ni1757   2.393       .  S
C703       O1756   1.280   1_455  A
C703       C1949   1.472       .  S
C704        C795   1.465       .  S
C705        C767   1.472       .  S
C706       O1753   1.282   1_455  A
C706       C2019   1.470   1_455  S
O707       Ni715   1.923       .  S
O707        C717   1.283       .  A
O708       Ni715   1.922       .  S
O708        C718   1.283       .  A
O709       Ni715   1.913       .  S
O709        C719   1.278       .  A
O710       Ni715   1.904       .  S
O710        C720   1.279       .  A
O711       Ni716   1.925       .  S
O711        C720   1.281       .  A
O712       Ni716   1.920       .  S
O712        C719   1.283       .  A
O713       Ni716   1.906       .  S
O713        C718   1.278       .  A
O714       Ni716   1.916       .  S
O714        C717   1.280       .  A
Ni715      Ni716   2.390       .  S
C717        C753   1.480       .  S
C718        C946   1.479       .  S
C719       C1033   1.470       .  S
C720        C725   1.469       .  S
C721        C722   1.407       .  A
C721        C726   1.406       .  A
C721        H728   1.084       .  S
C722        C723   1.412       .  A
C723        C724   1.394       .  A
C723        N730   1.437       .  S
C724        C725   1.401       .  A
C724        H729   1.085       .  S
C725        C726   1.414       .  A
C726        N727   1.438       .  S
N727        H731   1.045       .  S
N727        H732   1.043       .  S
N730        H733   1.044       .  S
N730        H734   1.046       .  S
C735        C736   1.400       .  A
C735        C740   1.401       .  A
C735        H742   1.084       .  S
C737        N744   1.433       .  S
C738        C739   1.403   1_545  A
C739        C740   1.413       .  A
C740        N741   1.432       .  S
N741        H745   1.046       .  S
N741        H746   1.045       .  S
N744        H747   1.045       .  S
N744        H748   1.046       .  S
C749        C750   1.405       .  A
C749        C754   1.406       .  A
C749        H756   1.084       .  S
C750        C751   1.411       .  A
C751        C752   1.404       .  A
C751        N758   1.433       .  S
C752        C753   1.405       .  A
C752        H757   1.084       .  S
C753        C754   1.411       .  A
C754        N755   1.438       .  S
N755        H759   1.046       .  S
N755        H760   1.045       .  S
N758        H761   1.046       .  S
N758        H762   1.046       .  S
C763        C764   1.402       .  A
C763        C768   1.394       .  A
C763        H770   1.084       .  S
C764        C765   1.409       .  A
C765        C766   1.407       .  A
C765        N772   1.431       .  S
C766        C767   1.404       .  A
C766        H771   1.084       .  S
C767        C768   1.418       .  A
C768        N769   1.440       .  S
N769        H773   1.046       .  S
N769        H774   1.040       .  S
N772        H775   1.046       .  S
N772        H776   1.045       .  S
C777        C778   1.403       .  A
C778        C779   1.412       .  A
C779        C780   1.408       .  A
C779        N786   1.436       .  S
C780        C781   1.402       .  A
C780        H785   1.084       .  S
C782        N783   1.426       .  S
N783        H787   1.045       .  S
N783        H788   1.045       .  S
N786        H789   1.046       .  S
N786        H790   1.046       .  S
C791        C792   1.402       .  A
C791        C796   1.404       .  A
C791        H798   1.083       .  S
C792        C793   1.411       .  A
C793        C794   1.399       .  A
C793        N800   1.438       .  S
C794        C795   1.398       .  A
C794        H799   1.084       .  S
C795        C796   1.416       .  A
C796        N797   1.438       .  S
N797        H801   1.046       .  S
N797        H802   1.044       .  S
N800        H803   1.045       .  S
N800        H804   1.046       .  S
C805        C806   1.401       .  A
C805        C810   1.400       .  A
C805        H812   1.085       .  S
C806        C807   1.426       .  A
C807        C808   1.409       .  A
C807        N814   1.438       .  S
C808        C809   1.406       .  A
C808        H813   1.082       .  S
C809        C810   1.413       .  A
C810        N811   1.430       .  S
N811        H815   1.046       .  S
N811        H816   1.045       .  S
N814        H817   1.038       .  S
N814        H818   1.043       .  S
C819        C820   1.400       .  A
C819        C824   1.394       .  A
C819        H826   1.084       .  S
C820        C821   1.412       .  A
C821        C822   1.408       .  A
C821        N828   1.438       .  S
C822        C823   1.402   1_565  A
C822        H827   1.084   1_565  S
C823        C824   1.414   1_545  A
N825        H829   1.045       .  S
N825        H830   1.043       .  S
N828        H831   1.043       .  S
N828        H832   1.046       .  S
C833        C834   1.401       .  A
C833        C838   1.402       .  A
C833        H840   1.084   1_556  S
C834        C835   1.414       .  A
C835        C836   1.402       .  A
C835        N842   1.439       .  S
C836        C837   1.403       .  A
C836        H841   1.084       .  S
C837        C838   1.407       .  A
C838        N839   1.437       .  S
N839        H843   1.046   1_556  S
N839        H844   1.046       .  S
N842        H845   1.044       .  S
N842        H846   1.046       .  S
C847        C848   1.400   1_545  A
C847        C852   1.402       .  A
C847        H854   1.084       .  S
C848        C849   1.407       .  A
C849        C850   1.402       .  A
C849        N856   1.431       .  S
C850        C851   1.403       .  A
C850        H855   1.084       .  S
C851        C852   1.425   1_565  A
C852        N853   1.439       .  S
N856        H859   1.046       .  S
N856        H860   1.046       .  S
C861        C862   1.402       .  A
C861        C866   1.409       .  A
C861        H868   1.084       .  S
C862        C863   1.414       .  A
C863        C864   1.396       .  A
C863        N870   1.437   1_556  S
C864        C865   1.399       .  A
C864        H869   1.084       .  S
C865        C866   1.416       .  A
C866        N867   1.440       .  S
N867        H871   1.045       .  S
N867        H872   1.043       .  S
N870        H873   1.042       .  S
N870        H874   1.046       .  S
C875        C876   1.398       .  A
C875        C880   1.398       .  A
C875        H882   1.084       .  S
C876        C877   1.417       .  A
C877        C878   1.409       .  A
C877        N884   1.431   1_455  S
C878        C879   1.410       .  A
C878        H883   1.082       .  S
C879        C880   1.419       .  A
C880        N881   1.429       .  S
N881        H885   1.046       .  S
N881        H886   1.045       .  S
N884       H1943   1.045       .  S
N884       H1944   1.042   1_556  S
H887       N1940   1.045       .  S
H888       N1940   1.042   1_554  S
C889        C890   1.398       .  A
C889        C894   1.390       .  A
C889        H896   1.085       .  S
C890        C891   1.414       .  A
C891        C892   1.413       .  A
C891        N898   1.438       .  S
C892        C893   1.405       .  A
C892        H897   1.084       .  S
C893       C1759   1.472       .  S
C893        C894   1.418       .  A
C894        N895   1.439       .  S
N895        H899   1.046       .  S
N895       H1956   1.038       .  S
N898        H901   1.042       .  S
N898        H902   1.046       .  S
H900       N1951   1.038       .  S
C903        C904   1.408       .  A
C903        C908   1.406       .  A
C903        H910   1.082       .  S
C904        C905   1.414       .  A
C905        C906   1.401       .  A
C905        N912   1.431       .  S
C906        C907   1.397       .  A
C906        H911   1.084       .  S
C907        C908   1.411       .  A
N909        H913   1.046       .  S
N909        H914   1.045       .  S
N912        H915   1.046       .  S
N912        H916   1.045       .  S
C917        C918   1.402       .  A
C917        C922   1.401       .  A
C917        H924   1.084       .  S
C918        C919   1.416       .  A
C919        C920   1.408       .  A
C919        N926   1.439       .  S
C920        C921   1.403       .  A
C921        C922   1.411       .  A
C922        N923   1.438       .  S
N923        H927   1.046       .  S
N923        H928   1.046       .  S
N926        H929   1.044       .  S
C931       C1988   1.409       .  A
C931        C936   1.412   1_655  A
C931        H938   1.083       .  S
C932       C1987   1.409       .  A
C932        C933   1.408       .  A
C933        C934   1.392       .  A
C933        N940   1.432       .  S
C934        C935   1.396       .  A
C934        H939   1.079       .  S
C935       C1718   1.468       .  S
C935       C1992   1.408       .  A
C936       C1991   1.408       .  A
C936        N937   1.437       .  S
N937        H941   1.046       .  S
N937        H942   1.046       .  S
N940        H943   1.045       .  S
N940        H944   1.046       .  S
C945        C946   1.406       .  A
C945        C950   1.405       .  A
C945        H952   1.084       .  S
C946        C947   1.417       .  A
C947        C948   1.386       .  A
C947        N954   1.430       .  S
C948        C949   1.399       .  A
C948        H953   1.085       .  S
C949        C950   1.413       .  A
C950        N951   1.433       .  S
N951        H955   1.046       .  S
N951        H956   1.046       .  S
N954        H957   1.034       .  S
N954        H958   1.045       .  S
C959        C960   1.404       .  A
C959        C964   1.405       .  A
C959        H966   1.084       .  S
C960        C961   1.409       .  A
C961        C962   1.401       .  A
C961        N968   1.437       .  S
C962        C963   1.400       .  A
C962       H2023   1.084       .  S
C963       C1762   1.470       .  S
C963        C964   1.416       .  A
C964        N965   1.439       .  S
N965        H969   1.046       .  S
N965        H970   1.043       .  S
H967       C2018   1.084       .  S
N968        H971   1.046       .  S
N968       H2028   1.046       .  S
H972       N2024   1.046       .  S
C973        C974   1.400       .  A
C973        C978   1.400       .  A
C973        H980   1.084       .  S
C974        C975   1.416       .  A
C975        C976   1.412       .  A
C975        N982   1.439       .  S
C976        C977   1.403       .  A
C976        H981   1.084       .  S
C977        C978   1.406       .  A
C978        N979   1.434       .  S
N979        H983   1.046       .  S
N979        H984   1.046       .  S
N982        H985   1.042       .  S
N982        H986   1.045       .  S
C987       C2044   1.405       .  A
C987        C992   1.408       .  A
C987        H994   1.084       .  S
C988       C1719   1.476       .  S
C988       C2043   1.405       .  A
C988        C989   1.412       .  A
C989        C990   1.400       .  A
C989        N996   1.438       .  S
C990        C991   1.407       .  A
C990        H995   1.080       .  S
C991       C2048   1.414       .  A
C992       C2047   1.414   1_455  A
C992        N993   1.438       .  S
N993        H997   1.046       .  S
N993        H998   1.044       .  S
N996        H999   1.043       .  S
N996       H1000   1.046       .  S
C1001      C1002   1.411       .  A
C1001      C1006   1.402       .  A
C1001      H1008   1.076       .  S
C1002      C1003   1.416       .  A
C1003      C1004   1.414       .  A
C1003      N1010   1.436       .  S
C1004      C1005   1.407       .  A
C1004      H1009   1.083       .  S
C1005      C1006   1.404       .  A
C1006      N1007   1.439       .  S
N1007      H1011   1.046       .  S
N1007      H1012   1.046       .  S
N1010      H1013   1.045       .  S
N1010      H1014   1.046       .  S
C1015      C1016   1.400       .  A
C1015      C1020   1.397       .  A
C1015      H1022   1.084       .  S
C1016      C1017   1.409       .  A
C1017      C1018   1.406       .  A
C1017      N1024   1.438       .  S
C1018      C1019   1.401       .  A
C1018      H1023   1.084       .  S
C1019      C1020   1.404       .  A
C1020      N1021   1.437       .  S
N1021      H1025   1.046       .  S
N1021      H1026   1.045       .  S
N1024      H1027   1.042       .  S
N1024      H1028   1.046       .  S
C1029      C1030   1.396       .  A
C1029      C1034   1.390       .  A
C1029      H1036   1.085       .  S
C1030      C1031   1.419       .  A
C1031      C1032   1.407       .  A
C1031      N1038   1.437       .  S
C1032      C1033   1.398       .  A
C1032      H1037   1.084       .  S
C1033      C1034   1.410       .  A
C1034      N1035   1.425       .  S
N1035      H1039   1.043       .  S
N1035      H1040   1.046       .  S
N1038      H1041   1.044       .  S
N1038      H1042   1.046       .  S
C1043      C1044   1.406       .  A
C1043      C1048   1.416       .  A
C1043      H1050   1.083       .  S
C1044      C1045   1.410       .  A
C1045      C1046   1.393       .  A
C1045      N1052   1.438       .  S
C1046      C1047   1.404       .  A
C1046      H1051   1.078       .  S
C1047      C1048   1.416       .  A
C1048      N1049   1.434       .  S
N1049      H1053   1.046       .  S
N1049      H1054   1.045       .  S
N1052      H1055   1.045       .  S
N1052      H1056   1.046       .  S
C1057      C1058   1.352       .  D
C1057      C1599   1.563       .  S
C1057      C1094   1.581       .  S
C1058      C1558   1.485       .  S
C1058      C1575   1.508       .  S
C1059      C1060   1.351       .  D
C1059      C1601   1.550       .  S
C1059      C1096   1.546       .  S
C1060      C1530   1.507       .  S
C1060      C1544   1.476       .  S
O1061     Ni1069   2.086       .  S
O1061      C1071   1.316       .  A
O1062     Ni1069   1.978       .  S
O1062      C1072   1.292       .  A
O1063     Ni1069   2.034       .  S
O1063      C1073   1.280       .  A
O1064     Ni1069   2.057       .  S
O1064      C1074   1.315       .  A
O1065     Ni1070   1.796       .  S
O1065      C1074   1.243       .  A
O1066     Ni1070   1.914       .  S
O1066      C1073   1.224       .  A
O1067     Ni1070   1.933       .  S
O1067      C1072   1.285       .  A
O1068     Ni1070   1.888       .  S
O1068      C1071   1.213       .  A
Ni1069    Ni1070   2.261       .  S
C1071      C1585   1.563       .  S
C1073      C1587   1.550       .  S
C1075      C1076   1.362       .  D
C1075      C1110   1.536       .  S
C1076      C1502   1.491       .  S
C1076      C1519   1.493       .  S
C1077      C1078   1.346       .  D
C1077      C1108   1.564       .  S
C1078      C1477   1.480       .  S
C1078      C1488   1.494       .  S
C1079      C1080   1.348       .  D
C1079      C1635   1.533       .  S
C1080      C1446   1.490       .  S
C1080      C1460   1.488       .  S
C1081      C1082   1.358       .  D
C1081      C1637   1.578       .  S
C1082      C1418   1.484       .  S
C1082      C1432   1.501       .  S
O1083     Ni1091   1.862       .  S
O1083      C1093   1.251       .  A
O1084     Ni1091   1.890       .  S
O1084      C1094   1.250       .  A
O1085     Ni1091   1.816       .  S
O1085      C1095   1.246       .  A
O1086     Ni1091   1.857       .  S
O1086      C1096   1.243       .  A
O1087     Ni1092   2.045       .  S
O1087      C1096   1.304       .  A
O1088     Ni1092   2.048       .  S
O1088      C1095   1.304       .  A
O1089     Ni1092   2.022       .  S
O1089      C1094   1.290       .  A
O1090     Ni1092   2.049       .  S
O1090      C1093   1.306       .  A
Ni1091    Ni1092   2.307       .  S
O1097     Ni1105   2.052       .  S
O1097      C1107   1.297       .  A
O1098     Ni1105   2.076       .  S
O1098      C1108   1.307       .  A
O1099     Ni1105   2.055       .  S
O1099      C1109   1.307       .  A
O1100     Ni1105   2.014       .  S
O1100      C1110   1.303       .  A
O1101     Ni1106   1.907       .  S
O1101      C1110   1.254       .  A
O1102     Ni1634   1.931       .  S
O1102      C1637   1.250   1_565  A
O1103     Ni1106   1.838       .  S
O1103      C1108   1.233       .  A
O1104     Ni1634   1.888   1_545  S
O1104      C1635   1.221       .  A
Ni1105    Ni1106   2.170       .  S
Ni1106     O1630   1.931       .  S
Ni1106     O1632   1.888       .  S
C1107      C1607   1.533       .  S
C1107      O1632   1.221       .  A
C1109      C1609   1.578       .  S
C1109      O1630   1.250       .  A
C1111      C1112   1.363       .  D
C1111      C1393   1.488       .  S
C1111      C1407   1.512       .  S
C1112      C1130   1.596       .  S
C1112      C1148   1.540       .  S
C1113      C1114   1.347       .  D
C1113      C1659   1.532       .  S
C1113      C1163   1.565       .  S
C1114      C1365   1.479       .  S
C1114      C1376   1.489       .  S
C1115      C1116   1.361       .  D
C1115      C1337   1.505       .  S
C1115      C1348   1.487       .  S
C1116      C1677   1.587       .  S
C1116      C1162   1.575       .  S
C1117      C1118   1.351       .  D
C1117      C1657   1.577       .  S
C1117      C1161   1.575       .  S
C1118      C1306   1.492       .  S
C1118      C1320   1.480       .  S
O1119     Ni1127   2.077       .  S
O1119      C1129   1.306       .  A
O1120     Ni1127   1.978       .  S
O1120      C1130   1.286       .  A
O1121     Ni1127   2.073       .  S
O1121      C1131   1.298       .  A
O1122     Ni1127   2.081       .  S
O1122      C1132   1.319       .  A
O1123     Ni1128   1.707       .  S
O1123      C1132   1.214       .  A
O1124     Ni1128   1.881   1_565  S
O1124      C1131   1.208   1_565  A
O1125     Ni1128   1.983       .  S
O1125      C1130   1.297       .  A
O1126     Ni1128   1.949       .  S
O1126      C1129   1.231       .  A
Ni1127    Ni1128   2.176       .  S
C1129      C1645   1.577   1_545  S
C1131      C1641   1.532   1_545  S
C1132      C1133   1.536       .  S
C1133      C1134   1.357       .  D
C1133      C1150   1.596       .  S
C1134      C1278   1.494       .  S
C1134      C1292   1.486       .  S
C1135      C1136   1.350       .  D
C1135      C1675   1.542       .  S
C1135      C1164   1.563       .  S
C1136      C1250   1.486       .  S
C1136      C1267   1.492       .  S
O1137     Ni1145   1.882   1_565  S
O1137      C1147   1.207   1_565  A
O1138      C1148   1.212       .  A
O1139     Ni1145   1.956       .  S
O1139      C1149   1.238       .  A
O1140      C1150   1.294       .  A
O1141     Ni1146   2.000   1_455  S
O1142     Ni1146   2.076       .  S
O1142      C1149   1.308       .  A
O1143     Ni1146   2.081   1_455  S
O1144     Ni1146   2.085       .  S
O1144      C1147   1.302       .  A
Ni1145    Ni1146   2.159       .  S
C1147      C1663   1.542   1_545  S
C1149      C1644   1.587   1_545  S
O1151      C1161   1.234       .  A
O1152     Ni1159   1.764   1_655  S
O1152      C1162   1.235       .  A
O1153      C1163   1.256       .  A
O1154     Ni1159   1.878   1_655  S
O1154      C1164   1.256       .  A
O1155     Ni1160   2.041       .  S
O1155      C1164   1.305       .  A
O1156     Ni1160   2.046   1_455  S
O1157     Ni1160   2.059       .  S
O1157      C1162   1.302       .  A
O1158     Ni1160   2.060   1_455  S
Ni1159    Ni1160   2.300   1_455  S
O1165     Ni1173   1.925   1_556  S
O1165      C1175   1.280       .  A
O1166     Ni1173   1.921       .  S
O1166      C1176   1.282       .  A
O1167     Ni1173   1.924       .  S
O1167      C1177   1.284       .  A
O1168     Ni1173   1.925   1_556  S
O1168      C1178   1.281       .  A
O1169     Ni1174   1.924       .  S
O1169      C1178   1.285   1_554  A
O1170     Ni1174   1.922       .  S
O1170      C1177   1.280       .  A
O1171     Ni1174   1.921       .  S
O1171      C1176   1.280       .  A
O1172     Ni1174   1.913       .  S
O1172      C1175   1.280   1_554  A
Ni1173    Ni1174   2.388       .  S
C1175      C1390   1.470       .  S
C1176      C1505   1.474       .  S
C1177      C1533   1.484       .  S
C1178      C1334   1.492       .  S
O1179      C1189   1.278   1_554  A
O1180     Ni1187   1.904       .  S
O1181     Ni1187   1.929       .  S
O1182      C1192   1.283       .  A
O1183     Ni1188   1.914       .  S
O1183      C1192   1.283   1_554  A
O1184     Ni1188   1.911       .  S
O1184      C1191   1.278       .  A
O1185     Ni1188   1.924       .  S
O1185      C1190   1.281       .  A
O1186     Ni1188   1.917       .  S
O1186      C1189   1.281   1_554  A
C1189      C1362   1.466       .  S
C1192      C1404   1.489       .  S
O1193     Ni1201   1.927       .  S
O1193      C1203   1.285   1_554  A
O1194     Ni1729   1.926       .  S
O1194      C1204   1.283   1_565  A
O1195     Ni1729   1.908       .  S
O1195      C1205   1.276   1_565  A
O1196     Ni1201   1.906       .  S
O1196      C1206   1.279   1_554  A
O1197     Ni1202   1.923       .  S
O1197      C1734   1.281   1_554  A
O1198     Ni1202   1.914       .  S
O1198      C1205   1.281       .  A
O1199     Ni1202   1.907       .  S
O1199      C1204   1.280       .  A
O1200     Ni1202   1.913       .  S
O1200      C1731   1.279   1_554  A
Ni1201     O1722   1.926       .  S
Ni1201     O1723   1.908       .  S
Ni1201    Ni1730   2.392       .  S
Ni1202    Ni1729   2.392   1_545  S
C1203      O1728   1.279   1_556  A
C1203      C1379   1.481       .  S
C1204      C1449   1.477       .  S
C1205      C1547   1.458       .  S
C1206      O1725   1.281   1_556  A
C1206      C1351   1.465       .  S
O1207     Ni1215   1.923       .  S
O1207      C1217   1.283       .  A
O1208     Ni1215   1.927       .  S
O1208      C1746   1.283       .  A
O1209     Ni1215   1.905       .  S
O1209      C1747   1.277       .  A
O1210     Ni1215   1.900       .  S
O1210      C1220   1.277       .  A
O1211     Ni1744   1.937   1_545  S
O1211      C1220   1.285       .  A
O1212     Ni1216   1.926       .  S
O1212      C1219   1.285       .  A
O1213     Ni1216   1.909       .  S
O1213      C1218   1.278       .  A
O1214     Ni1744   1.909       .  S
O1214      C1217   1.278   1_565  A
Ni1215    Ni1744   2.389   1_545  S
Ni1216     O1739   1.937       .  S
Ni1216     O1742   1.908       .  S
Ni1216    Ni1743   2.389       .  S
C1217      C1435   1.471       .  S
C1218      O1736   1.283       .  A
C1218      C1309   1.472       .  S
C1219      O1737   1.277       .  A
C1219      C1264   1.477       .  S
C1220      C1572   1.482       .  S
O1221     Ni1229   1.923       .  S
O1221      C1231   1.281       .  A
O1222     Ni1229   1.921       .  S
O1222      C1232   1.283       .  A
O1223     Ni1229   1.914       .  S
O1223      C1233   1.281       .  A
O1224     Ni1229   1.916       .  S
O1224      C1234   1.279       .  A
O1225     Ni1230   1.919       .  S
O1226      C1233   1.281       .  A
O1227      C1232   1.277       .  A
O1228     Ni1230   1.912       .  S
C1232      C1323   1.465       .  S
C1233      C1295   1.472       .  S
O1235     Ni1243   1.923       .  S
O1235      C1245   1.283       .  A
O1236     Ni1243   1.922       .  S
O1236      C1246   1.283       .  A
O1237     Ni1243   1.913       .  S
O1237      C1247   1.278       .  A
O1238     Ni1243   1.904       .  S
O1238      C1248   1.279       .  A
O1239     Ni1244   1.925       .  S
O1239      C1248   1.281       .  A
O1240     Ni1244   1.920       .  S
O1240      C1247   1.283       .  A
O1241     Ni1244   1.906       .  S
O1241      C1246   1.278       .  A
O1242     Ni1244   1.915       .  S
O1242      C1245   1.280       .  A
Ni1243    Ni1244   2.390       .  S
C1245      C1281   1.480       .  S
C1246      C1474   1.479       .  S
C1247      C1561   1.470       .  S
C1248      C1253   1.469       .  S
C1249      C1250   1.407       .  A
C1249      C1254   1.406       .  A
C1249      H1256   1.084       .  S
C1250      C1251   1.412       .  A
C1251      C1252   1.394       .  A
C1251      N1258   1.437       .  S
C1252      C1253   1.401       .  A
C1252      H1257   1.085       .  S
C1253      C1254   1.414       .  A
C1254      N1255   1.438       .  S
N1255      H1259   1.045       .  S
N1255      H1260   1.043       .  S
N1258      H1261   1.044       .  S
N1258      H1262   1.046       .  S
C1263      C1264   1.400       .  A
C1263      C1268   1.401       .  A
C1263      H1270   1.084       .  S
C1264      C1793   1.418       .  A
C1265      C1792   1.418   1_545  A
C1265      C1794   1.398       .  A
C1265      N1272   1.433       .  S
C1266      C1793   1.398       .  A
C1266      C1267   1.403       .  A
C1266      H1799   1.084       .  S
C1267      C1268   1.413       .  A
C1268      N1269   1.432       .  S
N1269      H1273   1.046       .  S
N1269      H1274   1.045       .  S
H1271      C1794   1.084       .  S
N1272      H1275   1.045       .  S
N1272      H1276   1.046       .  S
C1277      C1278   1.405       .  A
C1277      C1282   1.406       .  A
C1277      H1284   1.084       .  S
C1278      C1279   1.411       .  A
C1279      C1280   1.404       .  A
C1279      N1286   1.433       .  S
C1280      C1281   1.405       .  A
C1280      H1285   1.084       .  S
C1281      C1282   1.411       .  A
C1282      N1283   1.438       .  S
N1283      H1287   1.046       .  S
N1283      H1288   1.045       .  S
N1286      H1289   1.046       .  S
N1286      H1290   1.046       .  S
C1291      C1292   1.402       .  A
C1291      C1296   1.394       .  A
C1291      H1298   1.084       .  S
C1292      C1293   1.409       .  A
C1293      C1294   1.407       .  A
C1293      N1300   1.431       .  S
C1294      C1295   1.404       .  A
C1294      H1299   1.084       .  S
C1295      C1296   1.418       .  A
C1296      N1297   1.440       .  S
N1297      H1301   1.046       .  S
N1297      H1302   1.040       .  S
N1300      H1303   1.046       .  S
N1300      H1304   1.045       .  S
C1305      C1306   1.403       .  A
C1305      C1838   1.391       .  A
C1305      H1840   1.083       .  S
C1306      C1307   1.412       .  A
C1307      C1308   1.407       .  A
C1307      N1314   1.436       .  S
C1308      C1309   1.402       .  A
C1308      H1313   1.084       .  S
C1309      C1838   1.408       .  A
C1310      C1833   1.392   1_545  A
C1310      C1837   1.408   1_545  A
C1310      N1311   1.426       .  S
N1311      H1315   1.045       .  S
N1311      H1316   1.045       .  S
H1312      C1833   1.083   1_545  S
N1314      H1317   1.046       .  S
N1314      H1318   1.046       .  S
C1319      C1320   1.402       .  A
C1319      C1324   1.404       .  A
C1319      H1326   1.083       .  S
C1320      C1321   1.411       .  A
C1321      C1322   1.399       .  A
C1321      N1328   1.438       .  S
C1322      C1323   1.398       .  A
C1322      H1327   1.084       .  S
C1323      C1324   1.416       .  A
C1324      N1325   1.438       .  S
N1325      H1329   1.046       .  S
N1325      H1330   1.044       .  S
N1328      H1331   1.045       .  S
N1328      H1332   1.046       .  S
C1333      C1334   1.401       .  A
C1333      C1338   1.400       .  A
C1333      H1340   1.085       .  S
C1334      C1335   1.426       .  A
C1335      C1336   1.409       .  A
C1335      N1342   1.439       .  S
C1336      C1337   1.406       .  A
C1336      H1341   1.082       .  S
C1337      C1338   1.413       .  A
C1338      N1339   1.430       .  S
N1339      H1343   1.046       .  S
N1339      H1344   1.045       .  S
N1342      H1345   1.038       .  S
N1342      H1346   1.043       .  S
C1347      C1348   1.400       .  A
C1347      C1352   1.394       .  A
C1347      H1354   1.084       .  S
C1348      C1349   1.412       .  A
C1349      C1350   1.408       .  A
C1349      N1356   1.438       .  S
C1350      C1351   1.402       .  A
C1350      H1355   1.084       .  S
C1351      C1352   1.414       .  A
C1352      N1881   1.438   1_556  S
N1353      C1880   1.438   1_544  S
N1353      H1357   1.045   1_545  S
N1353      H1358   1.043       .  S
N1356      H1359   1.043       .  S
N1356      H1360   1.046       .  S
C1361      C1362   1.401       .  A
C1361      C1366   1.402       .  A
C1361      H1368   1.084   1_556  S
C1362      C1363   1.414       .  A
C1363      C1364   1.402       .  A
C1363      N1370   1.439       .  S
C1364      C1365   1.403       .  A
C1364      H1369   1.084       .  S
C1365      C1366   1.407       .  A
C1366      N1367   1.437       .  S
N1367      H1371   1.046   1_556  S
N1367      H1372   1.046       .  S
N1370      H1373   1.044       .  S
N1370      H1374   1.046       .  S
C1375      C1376   1.400       .  A
C1375      C1380   1.402       .  A
C1375      H1382   1.084       .  S
C1376      C1377   1.407       .  A
C1377      C1378   1.402       .  A
C1377      N1384   1.431       .  S
C1378      C1379   1.403       .  A
C1378      H1383   1.084       .  S
C1379      C1380   1.425       .  A
C1380      N1381   1.439       .  S
N1381      H1913   1.039   1_556  S
N1381      H1914   1.045       .  S
N1384      H1387   1.046       .  S
N1384      H1388   1.046       .  S
H1385      N1909   1.039   1_554  S
H1386      N1909   1.045       .  S
C1389      C1390   1.402       .  A
C1389      C1394   1.409       .  A
C1389      H1396   1.084       .  S
C1390      C1391   1.414       .  A
C1391      C1392   1.396       .  A
C1391      N1398   1.437   1_556  S
C1392      C1393   1.399       .  A
C1392      H1397   1.084       .  S
C1393      C1394   1.416       .  A
C1394      N1395   1.440       .  S
N1395      H1399   1.045       .  S
N1395      H1400   1.043       .  S
N1398      H1401   1.042       .  S
N1398      H1402   1.046       .  S
C1403      C1404   1.398       .  A
C1403      C1408   1.398       .  A
C1403      H1410   1.084       .  S
C1404      C1405   1.417       .  A
C1405      C1406   1.409       .  A
C1405      N1412   1.431       .  S
C1406      C1407   1.410       .  A
C1406      H1411   1.082       .  S
C1407      C1408   1.419       .  A
C1408      N1409   1.429       .  S
N1409      H1413   1.046       .  S
N1409      H1414   1.045       .  S
C1417      C1418   1.398       .  A
C1417      C1422   1.390       .  A
C1417      H1424   1.085       .  S
C1418      C1419   1.414       .  A
C1419      C1420   1.413   1_655  A
C1419      N1426   1.438       .  S
C1420      C1421   1.405       .  A
C1420      H1425   1.084       .  S
C1421      C1422   1.418   1_455  A
C1422      N1423   1.439       .  S
N1423      H1427   1.046       .  S
N1426      H1429   1.042   1_655  S
N1426      H1430   1.046       .  S
C1431      C1432   1.408       .  A
C1431      C1436   1.406       .  A
C1431      H1438   1.082       .  S
C1432      C1433   1.414       .  A
C1433      C1434   1.401       .  A
C1433      N1440   1.431       .  S
C1434      C1435   1.397       .  A
C1434      H1439   1.084       .  S
C1435      C1436   1.411       .  A
C1436      N1965   1.438   1_545  S
N1437      C1964   1.438       .  S
N1437      H1441   1.046       .  S
N1437      H1442   1.045       .  S
N1440      H1443   1.046       .  S
N1440      H1444   1.045       .  S
C1445      C1446   1.402       .  A
C1445      C1450   1.401       .  A
C1445      H1452   1.084       .  S
C1446      C1447   1.416       .  A
C1447      C1448   1.408       .  A
C1447      N1454   1.439   1_545  S
C1448      C1449   1.403       .  A
C1448      H1981   1.083   1_545  S
C1449      C1450   1.411       .  A
C1450      N1451   1.438       .  S
N1451      H1455   1.046       .  S
N1451      H1456   1.046       .  S
H1453      C1976   1.083       .  S
N1454      H1457   1.044   1_565  S
N1454      H1986   1.046       .  S
H1458      N1982   1.046       .  S
C1459      C1464   1.412       .  A
C1459      H1466   1.083       .  S
C1460      C1461   1.408       .  A
C1461      C1462   1.391       .  A
C1461      N1468   1.432       .  S
C1462      C1463   1.396   1_655  A
C1462      H1467   1.079       .  S
C1464      N1465   1.437       .  S
N1465      H1469   1.046       .  S
N1465      H1470   1.046       .  S
N1468      H1471   1.045       .  S
N1468      H1472   1.046       .  S
C1473      C1474   1.406       .  A
C1473      C1478   1.405       .  A
C1473      H1480   1.084       .  S
C1474      C1475   1.417       .  A
C1475      C1476   1.386       .  A
C1475      N1482   1.430       .  S
C1476      C1477   1.399       .  A
C1476      H1481   1.085       .  S
C1477      C1478   1.413       .  A
C1478      N1479   1.433       .  S
N1479      H1483   1.046       .  S
N1479      H1484   1.046       .  S
N1482      H1485   1.034       .  S
N1482      H1486   1.045       .  S
C1487      C1488   1.404       .  A
C1487      C1492   1.405       .  A
C1487      H1494   1.084       .  S
C1488      C1489   1.409       .  A
C1489      C1490   1.401       .  A
C1489      N1496   1.437       .  S
C1490      C1491   1.400       .  A
C1491      C1492   1.416       .  A
C1492      N1493   1.439   1_655  S
N1493      H1497   1.046   1_455  S
N1493      H1498   1.043       .  S
N1496      H1499   1.046       .  S
C1501      C1502   1.400       .  A
C1501      C1506   1.400       .  A
C1501      H1508   1.084       .  S
C1502      C1503   1.416       .  A
C1503      C1504   1.412       .  A
C1503      N1510   1.439       .  S
C1504      C1505   1.403       .  A
C1504      H1509   1.084       .  S
C1505      C1506   1.406       .  A
C1506      N1507   1.434       .  S
N1507      H1511   1.046       .  S
N1507      H1512   1.046       .  S
N1510      H1513   1.042       .  S
N1510      H1514   1.045       .  S
C1515      C1520   1.408       .  A
C1515      H1522   1.084       .  S
C1516      C1517   1.412   1_455  A
C1517      C1518   1.400       .  A
C1517      N1524   1.438       .  S
C1518      C1519   1.407       .  A
C1518      H1523   1.080       .  S
C1520      N1521   1.438       .  S
N1521      H1525   1.046       .  S
N1521      H1526   1.044       .  S
N1524      H1527   1.043       .  S
N1524      H1528   1.046       .  S
C1529      C1530   1.411       .  A
C1529      C1534   1.402       .  A
C1529      H1536   1.076       .  S
C1530      C1531   1.416       .  A
C1531      C1532   1.414       .  A
C1531      N1538   1.436       .  S
C1532      C1533   1.407       .  A
C1532      H1537   1.083       .  S
C1533      C1534   1.404       .  A
C1534      N1535   1.439       .  S
N1535      H1539   1.046       .  S
N1535      H1540   1.046       .  S
N1538      H1541   1.045       .  S
N1538      H1542   1.046       .  S
C1543      C1544   1.400       .  A
C1543      C1548   1.397       .  A
C1543      H1550   1.084       .  S
C1544      C1545   1.409       .  A
C1545      C1546   1.406       .  A
C1545      N1552   1.438       .  S
C1546      C1547   1.401       .  A
C1546      H1551   1.084       .  S
C1547      C1548   1.404       .  A
C1548      N1549   1.437   1_545  S
N1549      H1553   1.046       .  S
N1549      H1554   1.045       .  S
N1552      H1555   1.042       .  S
N1552      H1556   1.046       .  S
C1557      C1558   1.396       .  A
C1557      C1562   1.390       .  A
C1557      H1564   1.085       .  S
C1558      C1559   1.419       .  A
C1559      C1560   1.407       .  A
C1559      N1566   1.437       .  S
C1560      C1561   1.398       .  A
C1560      H1565   1.084       .  S
C1561      C1562   1.410       .  A
C1562      N1563   1.425       .  S
N1563      H1567   1.043       .  S
N1563      H1568   1.046       .  S
N1566      H1569   1.044       .  S
N1566      H1570   1.046       .  S
C1571      C1572   1.406       .  A
C1571      C1576   1.415       .  A
C1571      H1578   1.083       .  S
C1572      C1573   1.410       .  A
C1573      C1574   1.393       .  A
C1573      N1580   1.438       .  S
C1574      C1575   1.404       .  A
C1574      H1579   1.078       .  S
C1575      C1576   1.416       .  A
C1576      N1577   1.434       .  S
N1577      H1581   1.046       .  S
N1577      H1582   1.045       .  S
N1580      H1583   1.045       .  S
N1580      H1584   1.046       .  S
C1585      C1586   1.352       .  D
C1585      C1622   1.582       .  S
C1586      C2086   1.485       .  S
C1586      C2103   1.508       .  S
C1587      C1588   1.351       .  D
C1587      C1624   1.546       .  S
C1588      C2058   1.507       .  S
C1588      C2072   1.476       .  S
O1589     Ni1597   2.086       .  S
O1589      C1599   1.316   1_565  A
O1590     Ni1597   1.978       .  S
O1590      C1600   1.292       .  A
O1591     Ni1597   2.034       .  S
O1591      C1601   1.280   1_565  A
O1592     Ni1597   2.057       .  S
O1592      C1602   1.315       .  A
O1593     Ni1598   1.796       .  S
O1593      C1602   1.243       .  A
O1594     Ni1598   1.914   1_545  S
O1594      C1601   1.224       .  A
O1595     Ni1598   1.933       .  S
O1595      C1600   1.285       .  A
O1596     Ni1598   1.888   1_545  S
O1596      C1599   1.213       .  A
Ni1597    Ni1598   2.261       .  S
C1603      C1604   1.362       .  D
C1603      C1638   1.536       .  S
C1604      C2030   1.491       .  S
C1604      C2047   1.493       .  S
C1605      C1606   1.346       .  D
C1605      C1636   1.563       .  S
C1606      C2005   1.480       .  S
C1606      C2016   1.494       .  S
C1607      C1608   1.348       .  D
C1608      C1974   1.490       .  S
C1608      C1988   1.488       .  S
C1609      C1610   1.358       .  D
C1610      C1946   1.484       .  S
C1610      C1960   1.501       .  S
O1611     Ni1619   1.862       .  S
O1611      C1621   1.251       .  A
O1612     Ni1619   1.890       .  S
O1612      C1622   1.250       .  A
O1613     Ni1619   1.816       .  S
O1613      C1623   1.246       .  A
O1614     Ni1619   1.857       .  S
O1614      C1624   1.243       .  A
O1615     Ni1620   2.045       .  S
O1615      C1624   1.304       .  A
O1616     Ni1620   2.048       .  S
O1616      C1623   1.304       .  A
O1617     Ni1620   2.022       .  S
O1617      C1622   1.290       .  A
O1618     Ni1620   2.049       .  S
O1618      C1621   1.306       .  A
Ni1619    Ni1620   2.307       .  S
O1625     Ni1633   2.052       .  S
O1625      C1635   1.297   1_565  A
O1626     Ni1633   2.076       .  S
O1626      C1636   1.307       .  A
O1627     Ni1633   2.055       .  S
O1627      C1637   1.307   1_565  A
O1628     Ni1633   2.014       .  S
O1628      C1638   1.303       .  A
O1629     Ni1634   1.907       .  S
O1629      C1638   1.254       .  A
O1631     Ni1634   1.838       .  S
O1631      C1636   1.233       .  A
Ni1633    Ni1634   2.171       .  S
C1639      C1640   1.363       .  D
C1639      C1921   1.488       .  S
C1639      C1935   1.512       .  S
C1640      C1658   1.596       .  S
C1640      C1676   1.539       .  S
C1641      C1642   1.347       .  D
C1641      C1691   1.565       .  S
C1642      C1893   1.480       .  S
C1642      C1904   1.489       .  S
C1643      C1644   1.361       .  D
C1643      C1865   1.505       .  S
C1643      C1876   1.487       .  S
C1644      C1690   1.576       .  S
C1645      C1646   1.351       .  D
C1645      C1689   1.575       .  S
C1646      C1834   1.492       .  S
C1646      C1848   1.480       .  S
O1647     Ni1655   2.077       .  S
O1647      C1657   1.306       .  A
O1648     Ni1655   1.978       .  S
O1648      C1658   1.286       .  A
O1649     Ni1655   2.073       .  S
O1649      C1659   1.298       .  A
O1650     Ni1655   2.081       .  S
O1650      C1660   1.320       .  A
O1651     Ni1656   1.707       .  S
O1651      C1660   1.214       .  A
O1652     Ni1656   1.881       .  S
O1652      C1659   1.208       .  A
O1653     Ni1656   1.983       .  S
O1653      C1658   1.297       .  A
O1654     Ni1656   1.949       .  S
O1654      C1657   1.231       .  A
Ni1655    Ni1656   2.177       .  S
C1660      C1661   1.537       .  S
C1661      C1662   1.357       .  D
C1661      C1678   1.596       .  S
C1662      C1806   1.495       .  S
C1662      C1820   1.486       .  S
C1663      C1664   1.350       .  D
C1663      C1692   1.563       .  S
C1664      C1778   1.486       .  S
C1664      C1795   1.492       .  S
O1665     Ni1673   1.881       .  S
O1665      C1675   1.207       .  A
O1666      C1676   1.212       .  A
O1667     Ni1673   1.956       .  S
O1667      C1677   1.238       .  A
O1668      C1678   1.294       .  A
O1669     Ni1674   2.001   1_455  S
O1670     Ni1674   2.075       .  S
O1670      C1677   1.308       .  A
O1671     Ni1674   2.081   1_455  S
O1672     Ni1674   2.086       .  S
O1672      C1675   1.303       .  A
Ni1673    Ni1674   2.158       .  S
O1679      C1689   1.234       .  A
O1680     Ni1687   1.765   1_655  S
O1680      C1690   1.235       .  A
O1681      C1691   1.256       .  A
O1682     Ni1687   1.878   1_655  S
O1682      C1692   1.256       .  A
O1683     Ni1688   2.041       .  S
O1683      C1692   1.305       .  A
O1684     Ni1688   2.047   1_455  S
O1685     Ni1688   2.059       .  S
O1685      C1690   1.302       .  A
O1686     Ni1688   2.060   1_455  S
Ni1687    Ni1688   2.300   1_455  S
O1693     Ni1701   1.925   1_556  S
O1693      C1703   1.280       .  A
O1694     Ni1701   1.921       .  S
O1694      C1704   1.282       .  A
O1695     Ni1701   1.924       .  S
O1695      C1705   1.284       .  A
O1696     Ni1701   1.925   1_556  S
O1696      C1706   1.281       .  A
O1697     Ni1702   1.924       .  S
O1697      C1706   1.285   1_554  A
O1698     Ni1702   1.922       .  S
O1698      C1705   1.280       .  A
O1699     Ni1702   1.922       .  S
O1699      C1704   1.280       .  A
O1700     Ni1702   1.913       .  S
O1700      C1703   1.280   1_554  A
Ni1701    Ni1702   2.388       .  S
C1703      C1918   1.471       .  S
C1704      C2033   1.474       .  S
C1705      C2061   1.484       .  S
C1706      C1862   1.492       .  S
O1707      C1717   1.278   1_554  A
O1708     Ni1715   1.905       .  S
O1709     Ni1715   1.929       .  S
O1710      C1720   1.283       .  A
O1711     Ni1716   1.914       .  S
O1711      C1720   1.283   1_554  A
O1712     Ni1716   1.911       .  S
O1712      C1719   1.278       .  A
O1713     Ni1716   1.924       .  S
O1713      C1718   1.281       .  A
O1714     Ni1716   1.917       .  S
O1714      C1717   1.281   1_554  A
C1717      C1890   1.466       .  S
C1720      C1932   1.489       .  S
O1721     Ni1729   1.927       .  S
O1721      C1731   1.285   1_564  A
O1722      C1732   1.283       .  A
O1723      C1733   1.276       .  A
O1724     Ni1729   1.906       .  S
O1724      C1734   1.279   1_564  A
O1725     Ni1730   1.923       .  S
O1726     Ni1730   1.914       .  S
O1726      C1733   1.281       .  A
O1727     Ni1730   1.907       .  S
O1727      C1732   1.280       .  A
O1728     Ni1730   1.913       .  S
C1731      C1907   1.481   1_545  S
C1732      C1977   1.478       .  S
C1733      C2075   1.458       .  S
C1734      C1879   1.465       .  S
O1735     Ni1743   1.923       .  S
O1735      C1745   1.283       .  A
O1736     Ni1743   1.927       .  S
O1737     Ni1743   1.905       .  S
O1738     Ni1743   1.900       .  S
O1738      C1748   1.277       .  A
O1739      C1748   1.285       .  A
O1740     Ni1744   1.926       .  S
O1740      C1747   1.285   1_565  A
O1741     Ni1744   1.909       .  S
O1741      C1746   1.278   1_565  A
O1742      C1745   1.278       .  A
C1745      C1963   1.471       .  S
C1746      C1837   1.472   1_545  S
C1747      C1792   1.477   1_545  S
C1748      C2100   1.482       .  S
O1749     Ni1757   1.923       .  S
O1749      C1759   1.281       .  A
O1750     Ni1757   1.921       .  S
O1750      C1760   1.283       .  A
O1751     Ni1757   1.914       .  S
O1751      C1761   1.280       .  A
O1752     Ni1757   1.916       .  S
O1752      C1762   1.279       .  A
O1753     Ni1758   1.919       .  S
O1754      C1761   1.281       .  A
O1755      C1760   1.277       .  A
O1756     Ni1758   1.912       .  S
C1760      C1851   1.465       .  S
C1761      C1823   1.472       .  S
O1763     Ni1771   1.923       .  S
O1763      C1773   1.283       .  A
O1764     Ni1771   1.922       .  S
O1764      C1774   1.283       .  A
O1765     Ni1771   1.913       .  S
O1765      C1775   1.278       .  A
O1766     Ni1771   1.904       .  S
O1766      C1776   1.279       .  A
O1767     Ni1772   1.925       .  S
O1767      C1776   1.281       .  A
O1768     Ni1772   1.920       .  S
O1768      C1775   1.283       .  A
O1769     Ni1772   1.906       .  S
O1769      C1774   1.278       .  A
O1770     Ni1772   1.916       .  S
O1770      C1773   1.280       .  A
Ni1771    Ni1772   2.390       .  S
C1773      C1809   1.480       .  S
C1774      C2002   1.479       .  S
C1775      C2089   1.470       .  S
C1776      C1781   1.469       .  S
C1777      C1778   1.407       .  A
C1777      C1782   1.406       .  A
C1777      H1784   1.084       .  S
C1778      C1779   1.412       .  A
C1779      C1780   1.394       .  A
C1779      N1786   1.437       .  S
C1780      C1781   1.401       .  A
C1780      H1785   1.085       .  S
C1781      C1782   1.414       .  A
C1782      N1783   1.438       .  S
N1783      H1787   1.045       .  S
N1783      H1788   1.043       .  S
N1786      H1789   1.044       .  S
N1786      H1790   1.046       .  S
C1791      C1792   1.400       .  A
C1791      C1796   1.401       .  A
C1791      H1798   1.084       .  S
C1793      N1800   1.433       .  S
C1794      C1795   1.403   1_545  A
C1795      C1796   1.413       .  A
C1796      N1797   1.432       .  S
N1797      H1801   1.046       .  S
N1797      H1802   1.045       .  S
N1800      H1803   1.045       .  S
N1800      H1804   1.046       .  S
C1805      C1806   1.405       .  A
C1805      C1810   1.406       .  A
C1805      H1812   1.084       .  S
C1806      C1807   1.411       .  A
C1807      C1808   1.404       .  A
C1807      N1814   1.433       .  S
C1808      C1809   1.405       .  A
C1808      H1813   1.084       .  S
C1809      C1810   1.411       .  A
C1810      N1811   1.438       .  S
N1811      H1815   1.046       .  S
N1811      H1816   1.045       .  S
N1814      H1817   1.046       .  S
N1814      H1818   1.046       .  S
C1819      C1820   1.402       .  A
C1819      C1824   1.394       .  A
C1819      H1826   1.084       .  S
C1820      C1821   1.409       .  A
C1821      C1822   1.407       .  A
C1821      N1828   1.431       .  S
C1822      C1823   1.404       .  A
C1822      H1827   1.084       .  S
C1823      C1824   1.418       .  A
C1824      N1825   1.440       .  S
N1825      H1829   1.046       .  S
N1825      H1830   1.040       .  S
N1828      H1831   1.046       .  S
N1828      H1832   1.045       .  S
C1833      C1834   1.403       .  A
C1834      C1835   1.412       .  A
C1835      C1836   1.408       .  A
C1835      N1842   1.436       .  S
C1836      C1837   1.402       .  A
C1836      H1841   1.084       .  S
C1838      N1839   1.426       .  S
N1839      H1843   1.045       .  S
N1839      H1844   1.045       .  S
N1842      H1845   1.046       .  S
N1842      H1846   1.046       .  S
C1847      C1848   1.402       .  A
C1847      C1852   1.404       .  A
C1847      H1854   1.083       .  S
C1848      C1849   1.411       .  A
C1849      C1850   1.399       .  A
C1849      N1856   1.438       .  S
C1850      C1851   1.398       .  A
C1850      H1855   1.084       .  S
C1851      C1852   1.416       .  A
C1852      N1853   1.438       .  S
N1853      H1857   1.046       .  S
N1853      H1858   1.044       .  S
N1856      H1859   1.045       .  S
N1856      H1860   1.046       .  S
C1861      C1862   1.401       .  A
C1861      C1866   1.400       .  A
C1861      H1868   1.085       .  S
C1862      C1863   1.426       .  A
C1863      C1864   1.409       .  A
C1863      N1870   1.438       .  S
C1864      C1865   1.406       .  A
C1864      H1869   1.082       .  S
C1865      C1866   1.413       .  A
C1866      N1867   1.430       .  S
N1867      H1871   1.046       .  S
N1867      H1872   1.045       .  S
N1870      H1873   1.038       .  S
N1870      H1874   1.043       .  S
C1875      C1876   1.400       .  A
C1875      C1880   1.394       .  A
C1875      H1882   1.084       .  S
C1876      C1877   1.412       .  A
C1877      C1878   1.408       .  A
C1877      N1884   1.438       .  S
C1878      C1879   1.402   1_565  A
C1878      H1883   1.084   1_565  S
C1879      C1880   1.414   1_545  A
N1881      H1885   1.045       .  S
N1881      H1886   1.043       .  S
N1884      H1887   1.043       .  S
N1884      H1888   1.046       .  S
C1889      C1890   1.401       .  A
C1889      C1894   1.402       .  A
C1889      H1896   1.084   1_556  S
C1890      C1891   1.414       .  A
C1891      C1892   1.402       .  A
C1891      N1898   1.439       .  S
C1892      C1893   1.403       .  A
C1892      H1897   1.084       .  S
C1893      C1894   1.407       .  A
C1894      N1895   1.437       .  S
N1895      H1899   1.046   1_556  S
N1895      H1900   1.046       .  S
N1898      H1901   1.044       .  S
N1898      H1902   1.046       .  S
C1903      C1904   1.400   1_545  A
C1903      C1908   1.402       .  A
C1903      H1910   1.084       .  S
C1904      C1905   1.407       .  A
C1905      C1906   1.402       .  A
C1905      N1912   1.431       .  S
C1906      C1907   1.403       .  A
C1906      H1911   1.084       .  S
C1907      C1908   1.425   1_565  A
C1908      N1909   1.439       .  S
N1912      H1915   1.046       .  S
N1912      H1916   1.046       .  S
C1917      C1918   1.402       .  A
C1917      C1922   1.409       .  A
C1917      H1924   1.084       .  S
C1918      C1919   1.414       .  A
C1919      C1920   1.396       .  A
C1919      N1926   1.437   1_556  S
C1920      C1921   1.399       .  A
C1920      H1925   1.084       .  S
C1921      C1922   1.416       .  A
C1922      N1923   1.440       .  S
N1923      H1927   1.045       .  S
N1923      H1928   1.043       .  S
N1926      H1929   1.042       .  S
N1926      H1930   1.046       .  S
C1931      C1932   1.398       .  A
C1931      C1936   1.398       .  A
C1931      H1938   1.084       .  S
C1932      C1933   1.417       .  A
C1933      C1934   1.409       .  A
C1933      N1940   1.431       .  S
C1934      C1935   1.410       .  A
C1934      H1939   1.082       .  S
C1935      C1936   1.419       .  A
C1936      N1937   1.429       .  S
N1937      H1941   1.046       .  S
N1937      H1942   1.045       .  S
C1945      C1946   1.398       .  A
C1945      C1950   1.390       .  A
C1945      H1952   1.085       .  S
C1946      C1947   1.414       .  A
C1947      C1948   1.413   1_655  A
C1947      N1954   1.438       .  S
C1948      C1949   1.405       .  A
C1948      H1953   1.084       .  S
C1949      C1950   1.418   1_455  A
C1950      N1951   1.439       .  S
N1951      H1955   1.046       .  S
N1954      H1957   1.042   1_655  S
N1954      H1958   1.046       .  S
C1959      C1960   1.408       .  A
C1959      C1964   1.406       .  A
C1959      H1966   1.082       .  S
C1960      C1961   1.414       .  A
C1961      C1962   1.401       .  A
C1961      N1968   1.431       .  S
C1962      C1963   1.397       .  A
C1962      H1967   1.084       .  S
C1963      C1964   1.411       .  A
N1965      H1969   1.046       .  S
N1965      H1970   1.045       .  S
N1968      H1971   1.046       .  S
N1968      H1972   1.045       .  S
C1973      C1974   1.402       .  A
C1973      C1978   1.401       .  A
C1973      H1980   1.084       .  S
C1974      C1975   1.416       .  A
C1975      C1976   1.408       .  A
C1975      N1982   1.439       .  S
C1976      C1977   1.403       .  A
C1977      C1978   1.411       .  A
C1978      N1979   1.438       .  S
N1979      H1983   1.046       .  S
N1979      H1984   1.046       .  S
N1982      H1985   1.044       .  S
C1987      C1992   1.412       .  A
C1987      H1994   1.083       .  S
C1988      C1989   1.408       .  A
C1989      C1990   1.392       .  A
C1989      N1996   1.432       .  S
C1990      C1991   1.396   1_655  A
C1990      H1995   1.079       .  S
C1992      N1993   1.437       .  S
N1993      H1997   1.046       .  S
N1993      H1998   1.046       .  S
N1996      H1999   1.045       .  S
N1996      H2000   1.046       .  S
C2001      C2002   1.406       .  A
C2001      C2006   1.405       .  A
C2001      H2008   1.084       .  S
C2002      C2003   1.417       .  A
C2003      C2004   1.386       .  A
C2003      N2010   1.430       .  S
C2004      C2005   1.399       .  A
C2004      H2009   1.085       .  S
C2005      C2006   1.413       .  A
C2006      N2007   1.433       .  S
N2007      H2011   1.046       .  S
N2007      H2012   1.046       .  S
N2010      H2013   1.034       .  S
N2010      H2014   1.045       .  S
C2015      C2016   1.404       .  A
C2015      C2020   1.405       .  A
C2015      H2022   1.084       .  S
C2016      C2017   1.409       .  A
C2017      C2018   1.401       .  A
C2017      N2024   1.437       .  S
C2018      C2019   1.400       .  A
C2019      C2020   1.416       .  A
C2020      N2021   1.439   1_655  S
N2021      H2025   1.046   1_455  S
N2021      H2026   1.043       .  S
N2024      H2027   1.046       .  S
C2029      C2030   1.400       .  A
C2029      C2034   1.400       .  A
C2029      H2036   1.084       .  S
C2030      C2031   1.416       .  A
C2031      C2032   1.412       .  A
C2031      N2038   1.439       .  S
C2032      C2033   1.403       .  A
C2032      H2037   1.084       .  S
C2033      C2034   1.406       .  A
C2034      N2035   1.434       .  S
N2035      H2039   1.046       .  S
N2035      H2040   1.046       .  S
N2038      H2041   1.042       .  S
N2038      H2042   1.045       .  S
C2043      C2048   1.408       .  A
C2043      H2050   1.084       .  S
C2044      C2045   1.412   1_455  A
C2045      C2046   1.400       .  A
C2045      N2052   1.438       .  S
C2046      C2047   1.407       .  A
C2046      H2051   1.080       .  S
C2048      N2049   1.438       .  S
N2049      H2053   1.046       .  S
N2049      H2054   1.044       .  S
N2052      H2055   1.043       .  S
N2052      H2056   1.046       .  S
C2057      C2058   1.411       .  A
C2057      C2062   1.402       .  A
C2057      H2064   1.076       .  S
C2058      C2059   1.416       .  A
C2059      C2060   1.414       .  A
C2059      N2066   1.436       .  S
C2060      C2061   1.407       .  A
C2060      H2065   1.083       .  S
C2061      C2062   1.404       .  A
C2062      N2063   1.439       .  S
N2063      H2067   1.046       .  S
N2063      H2068   1.046       .  S
N2066      H2069   1.045       .  S
N2066      H2070   1.046       .  S
C2071      C2072   1.400       .  A
C2071      C2076   1.397       .  A
C2071      H2078   1.084       .  S
C2072      C2073   1.409       .  A
C2073      C2074   1.406       .  A
C2073      N2080   1.438       .  S
C2074      C2075   1.401       .  A
C2074      H2079   1.084       .  S
C2075      C2076   1.404       .  A
C2076      N2077   1.437       .  S
N2077      H2081   1.046       .  S
N2077      H2082   1.045       .  S
N2080      H2083   1.042       .  S
N2080      H2084   1.046       .  S
C2085      C2086   1.396       .  A
C2085      C2090   1.390       .  A
C2085      H2092   1.085       .  S
C2086      C2087   1.419       .  A
C2087      C2088   1.407       .  A
C2087      N2094   1.437       .  S
C2088      C2089   1.398       .  A
C2088      H2093   1.084       .  S
C2089      C2090   1.410       .  A
C2090      N2091   1.425       .  S
N2091      H2095   1.043       .  S
N2091      H2096   1.046       .  S
N2094      H2097   1.044       .  S
N2094      H2098   1.046       .  S
C2099      C2100   1.406       .  A
C2099      C2104   1.416       .  A
C2099      H2106   1.083       .  S
C2100      C2101   1.410       .  A
C2101      C2102   1.393       .  A
C2101      N2108   1.438       .  S
C2102      C2103   1.404       .  A
C2102      H2107   1.078       .  S
C2103      C2104   1.416       .  A
C2104      N2105   1.434       .  S
N2105      H2109   1.046       .  S
N2105      H2110   1.045       .  S
N2108      H2111   1.045       .  S
N2108      H2112   1.046       .  S
