geometry optimzed in LAMMPS
_audit_creation_date              2020-11-30 
_audit_creation_method            'lammps2cif' 
_symmetry_space_group_name_H-M    'P1' 
_symmetry_Int_Tables_number       1 
_symmetry_cell_setting            triclinic 
loop_ 
_symmetry_equiv_pos_as_xyz 
  x,y,z 
_cell_length_a                    30.15581594 
_cell_length_b                    30.34431158802529 
_cell_length_c                    18.198944774036953 
_cell_angle_alpha                 87.03072821028736 
_cell_angle_beta                  93.99022206459681 
_cell_angle_gamma                 89.7976980276216 
loop_ 
_atom_site_label 
_atom_site_type_symbol 
_atom_site_fract_x 
_atom_site_fract_y 
_atom_site_fract_z 
_atom_site_charge 
C1          C  0.85957302  0.35249783  0.42326823     0.31000
C2          C  0.86123592  0.35203048  0.08181057     0.31000
C3          C  0.90523052  0.35756066  0.46772369    -0.05200
C4          C  0.83253672  0.38925568  0.45658941    -0.06000
C5          C  0.84156622  0.31077035  0.46491299    -0.05800
C6          C  0.90609230  0.35856259  0.04556722    -0.05200
C7          C  0.83263925  0.38783847  0.03684619    -0.06000
C8          C  0.84376628  0.31039100  0.04388431    -0.05800
C9          C  0.94535146  0.37812186  0.06935221    -0.31200
N10         N  0.96634259  0.39242408  0.51089056     0.15300
C11         C  0.94345978  0.37905636  0.44895369    -0.31200
H12         H  0.95110188  0.38843130  0.39351361     0.17200
C13         C  0.79680676  0.41236710  0.05418274    -0.30200
N14         N  0.77349841  0.42663624  0.99120705     0.14000
C15         C  0.79583049  0.41377311  0.42924806    -0.30200
C16         C  0.84313313  0.26720001  0.07034810    -0.30500
N17         N  0.84485940  0.24044028  0.01360489     0.14500
H18         H  0.84693152  0.25603704  0.12736407     0.17100
C19         C  0.84273980  0.26655510  0.44959765    -0.30500
H20         H  0.84868274  0.25367879  0.39680367     0.17100
H21         H  0.78264289  0.41643524  0.37244977     0.17100
H22         H  0.95408554  0.38635996  0.12554110     0.17200
H23         H  0.78516602  0.41504575  0.10867206     0.17100
C24         C  0.86101502  0.35149469  0.17392144     0.31000
C25         C  0.85918150  0.35273591  0.33086163     0.31000
C26         C  0.86507159  0.39691930  0.20929680    -0.05200
C27         C  0.81874220  0.33325665  0.20869194    -0.06000
C28         C  0.89775985  0.32481264  0.22159944    -0.05800
C29         C  0.86431123  0.39760253  0.28739940    -0.05200
C30         C  0.81729805  0.33439237  0.28696788    -0.06000
C31         C  0.89695342  0.32596347  0.29973852    -0.05800
C32         C  0.88556318  0.43577646  0.30737867    -0.31200
N33         N  0.89960012  0.45779897  0.24632071     0.15300
C34         C  0.88657963  0.43466889  0.18676870    -0.31200
H35         H  0.89667983  0.44172788  0.13150646     0.17200
C36         C  0.77247090  0.33828270  0.29873265    -0.30200
N37         N  0.74741230  0.33817898  0.23362884     0.14000
C38         C  0.77525873  0.33431070  0.17924303    -0.30200
C39         C  0.91910669  0.28876988  0.32955764    -0.30500
N40         N  0.93096676  0.26375917  0.27477539     0.14500
H41         H  0.92047432  0.27744001  0.38668288     0.17100
C42         C  0.91899203  0.28568646  0.20939106    -0.30500
H43         H  0.92048341  0.27131721  0.15640760     0.17100
H44         H  0.76493031  0.33879864  0.12135581     0.17100
H45         H  0.89473176  0.44379968  0.36336331     0.17200
H46         H  0.75927425  0.34597643  0.35036273     0.17100
C47         C  0.54822661  0.88022492  0.07950301     0.31000
C48         C  0.54996666  0.88150829  0.42285104     0.31000
C49         C  0.55278247  0.92640043  0.03852036    -0.05200
C50         C  0.58421476  0.85295499  0.04654833    -0.06000
C51         C  0.50618076  0.86299881  0.03599262    -0.05800
C52         C  0.55279446  0.92765865  0.45898029    -0.05200
C53         C  0.58564642  0.85416484  0.46994340    -0.06000
C54         C  0.50736954  0.86374631  0.45758965    -0.05800
C55         C  0.52964784  0.96639017  0.43480946    -0.31200
N56         N  0.51589949  0.98839106  0.49275509     0.15300
C57         C  0.53126141  0.96471868  0.05536151    -0.31200
H58         H  0.52117541  0.97109820  0.10951268     0.17200
C59         C  0.62784533  0.84150687  0.45621472    -0.30200
N60         N  0.65250020  0.83531518  0.52104102     0.14000
C61         C  0.62541859  0.83923734  0.07512945    -0.30200
C62         C  0.48141291  0.82913798  0.43574776    -0.30500
N63         N  0.46755407  0.80656026  0.49561563     0.14500
H64         H  0.48044899  0.81590832  0.38172529     0.17100
C65         C  0.48088751  0.82707213  0.05466907    -0.30500
H66         H  0.47985568  0.81230804  0.10980910     0.17100
H67         H  0.63769287  0.84080315  0.13216146     0.17100
H68         H  0.51795950  0.97421241  0.37823820     0.17200
H69         H  0.64183395  0.84399584  0.40315519     0.17100
C70         C  0.55026598  0.87857674  0.17205815     0.31000
C71         C  0.55266418  0.87874599  0.33073650     0.31000
C72         C  0.50907198  0.89557910  0.20773561    -0.05200
C73         C  0.55658078  0.83321037  0.21651963    -0.06000
C74         C  0.58755747  0.90574784  0.21191427    -0.05800
C75         C  0.51042531  0.89547147  0.28541102    -0.05200
C76         C  0.55708524  0.83295617  0.29516779    -0.06000
C77         C  0.58966571  0.90546765  0.29061657    -0.05800
C78         C  0.47144389  0.91380629  0.30326499    -0.31200
N79         N  0.44780741  0.92792638  0.24043663     0.15300
C80         C  0.46944726  0.91494566  0.18199824    -0.31200
H81         H  0.45952700  0.92342678  0.12477991     0.17200
C82         C  0.55158670  0.78910151  0.31879907    -0.30200
N83         N  0.54828322  0.76340156  0.25934492     0.14000
C84         C  0.55219198  0.78986590  0.19765823    -0.30200
C85         C  0.63367833  0.91642669  0.31117278    -0.30500
N86         N  0.65698728  0.92450691  0.25014016     0.14500
H87         H  0.64846809  0.91610664  0.36697363     0.17100
C88         C  0.62878870  0.91876676  0.19011888    -0.30500
H89         H  0.63900776  0.91935536  0.13429900     0.17100
H90         H  0.54827604  0.77868970  0.14223643     0.17100
H91         H  0.46307337  0.92088293  0.35812682     0.17200
H92         H  0.54752838  0.77704129  0.37487311     0.17100
O93         O  0.93206131  0.83231874  0.47157411    -0.77500
C94         C  0.82648921  0.90422625  0.54575218     0.83600
O95         O  0.92526465  0.98807658  0.36751831    -0.78600
O96         O  0.89633744  0.03253427  0.08211049    -0.80100
O97         O  0.99344280  0.88419723  0.12937494    -0.79900
O98         O  0.00258394  0.83505699  0.99156134    -0.78500
Zn99       Zn  0.90648385  0.89454883  0.47246310     1.55700
O100        O  0.93294087  0.91967748  0.15035603    -0.79900
Cd101      Cd  0.00355534  0.90071946  0.02654554     1.59700
Cd102      Cd  0.96764721  0.99960692  0.45983559     1.59600
O103        O  0.06446358  0.93666635  0.01174283    -0.79900
O104        O  0.94590179  0.94269325  0.51099657    -1.90400
Cd105      Cd  0.90082574  0.96330877  0.07773658     1.59900
O106        O  0.04115385  0.00414250  0.46414405    -0.79800
O107        O  0.83567660  0.94368622  0.05574595    -0.78500
C108        C  0.92271105  0.94645760  0.37053272     0.84000
C109        C  0.97009715  0.81383691  0.47932381     0.83700
O110        O  0.85543211  0.87826201  0.52651827    -0.77500
C111        C  0.97428843  0.91956465  0.14059053     0.84500
O112        O  0.88568544  0.92791924  0.37924316    -0.77500
C113        C  0.07354382  0.97770214  0.48721821     0.84600
C114        C  0.91215588  0.06447995  0.54107164     0.85000
O115        O  0.94145245  0.05695894  0.49607434    -0.80000
O116        O  0.96717976  0.83525909  0.23851812    -0.77500
C117        C  0.96349968  0.91986634  0.38819877     0.83600
O118        O  0.86681270  0.96997002  0.20262809    -0.78600
O119        O  0.97528390  0.05472938  0.34496558    -0.80100
O120        O  0.08196763  0.93704721  0.31879908    -0.79900
O121        O  0.03791149  0.85500524  0.24547065    -0.78500
Zn122      Zn  0.94223697  0.89295935  0.27363473     1.55700
O123        O  0.06538533  0.00682085  0.30666617    -0.79900
Cd124      Cd  0.03390172  0.92390152  0.24220942     1.59700
Cd125      Cd  0.93434415  0.99450820  0.20028169     1.59600
O126        O  0.04018232  0.96008659  0.14359642    -0.79900
O127        O  0.97476689  0.95327413  0.26242763    -1.90400
Cd128      Cd  0.00351548  0.99236221  0.33550843     1.59900
O129        O  0.97757011  0.99688214  0.11606740    -0.79800
O130        O  0.00065283  0.93787290  0.40336544    -0.78500
C131        C  0.84913882  0.93404104  0.22751563     0.84000
C132        C  0.00847855  0.82511154  0.24108674     0.83700
O133        O  0.96233559  0.88010139  0.37427076    -0.77500
C134        C  0.09397229  0.97629185  0.30949917     0.84500
O135        O  0.87348725  0.90092534  0.25208448    -0.77500
C136        C  0.99870687  0.96061912  0.12551523     0.84600
C137        C  0.95038276  0.07590840  0.29573463     0.85000
O138        O  0.93391191  0.05731050  0.23896024    -0.80000
C139        C  0.03906477  0.53118723  0.42773039     0.31000
C140        C  0.04040310  0.53022574  0.08549558     0.31000
C141        C  0.03431853  0.48614125  0.47100948    -0.05200
C142        C  0.08052321  0.54962553  0.46991357    -0.06000
C143        C  0.00219864  0.55861110  0.46057217    -0.05800
C144        C  0.03607545  0.48499750  0.04910431    -0.05200
C145        C  0.08126051  0.54927889  0.04786167    -0.06000
C146        C  0.00248680  0.55721806  0.04000636    -0.05800
C147        C  0.01544438  0.44646116  0.07124465    -0.31200
N148        N  0.99962806  0.42543195  0.51175721     0.15300
C149        C  0.01301569  0.44800060  0.45080334    -0.31200
H150        H  0.00385120  0.43999113  0.39480925     0.17200
C151        C  0.12475208  0.55662950  0.07200009    -0.30200
N152        N  0.14988768  0.56008307  0.51283930     0.14000
C153        C  0.12295573  0.55790773  0.45069330    -0.30200
C154        C  0.98479724  0.59782956  0.05432369    -0.30500
N155        N  0.97612492  0.62401605  0.48977331     0.14500
H156        H  0.98452981  0.61116615  0.10803468     0.17100
C157        C  0.98434323  0.59866725  0.43338581    -0.30500
H158        H  0.98319509  0.61094155  0.37660519     0.17100
H159        H  0.13466409  0.55691289  0.39588248     0.17100
H160        H  0.00645379  0.43841900  0.12668642     0.17200
H161        H  0.13803213  0.55493506  0.12810832     0.17100
C162        C  0.04156365  0.52982479  0.17805823     0.31000
C163        C  0.04036787  0.53072565  0.33581920     0.31000
C164        C  0.99687022  0.52050644  0.21324080    -0.05200
C165        C  0.07292520  0.49637103  0.22543614    -0.06000
C166        C  0.05500438  0.57307268  0.21527144    -0.05800
C167        C  0.99630615  0.52105284  0.29098746    -0.05200
C168        C  0.07188348  0.49656233  0.30419371    -0.06000
C169        C  0.05446698  0.57368410  0.29325287    -0.05800
C170        C  0.95666810  0.50270537  0.30945662    -0.31200
N171        N  0.93383023  0.48969817  0.24727558     0.15300
C172        C  0.95752432  0.50162450  0.18847629    -0.31200
H173        H  0.94899736  0.49343289  0.13222909     0.17200
C174        C  0.11281868  0.48061726  0.33336945    -0.30200
N175        N  0.13935815  0.47289334  0.27832022     0.14000
C176        C  0.11518124  0.48152825  0.21319033    -0.30200
C177        C  0.05824360  0.61739796  0.31028212    -0.30500
N178        N  0.05961183  0.64277593  0.24688224     0.14500
H179        H  0.05584452  0.63039322  0.36403726     0.17100
C180        C  0.05911883  0.61615716  0.18942745    -0.30500
H181        H  0.05781635  0.62792458  0.13220501     0.17100
H182        H  0.12908977  0.48170113  0.16005312     0.17100
H183        H  0.94741151  0.49550546  0.36500907     0.17200
H184        H  0.12464596  0.48058010  0.39072305     0.17100
C185        C  0.37178184  0.06281578  0.05521602     0.31000
C186        C  0.37224343  0.06825993  0.39714080     0.31000
C187        C  0.40983989  0.03711653  0.02097882    -0.05200
C188        C  0.33076741  0.04458666  0.00956354    -0.06000
C189        C  0.38060966  0.10901108  0.01477924    -0.05800
C190        C  0.40982420  0.03999928  0.44243373    -0.05200
C191        C  0.32814848  0.05543540  0.43351816    -0.06000
C192        C  0.38178155  0.11265007  0.43595136    -0.05800
C193        C  0.45359442  0.03039984  0.42698938    -0.31200
N194        N  0.47817524  0.01724649  0.48911161     0.15300
C195        C  0.45344719  0.02547678  0.04632819    -0.31200
H196        H  0.46771285  0.02580398  0.10223178     0.17200
C197        C  0.28205712  0.05426440  0.41422439    -0.30200
N198        N  0.26138763  0.03033253  0.46719614     0.14000
C199        C  0.29313998  0.02017207  0.02305115    -0.30200
C200        C  0.40145625  0.15296729  0.41648917    -0.30500
N201        N  0.41213561  0.17542036  0.47766872     0.14500
H202        H  0.40977293  0.16472675  0.36224116     0.17100
C203        C  0.40410610  0.14611772  0.03687937    -0.30500
H204        H  0.41633483  0.15249132  0.09197366     0.17100
H205        H  0.29029269  0.99586081  0.06761002     0.17100
H206        H  0.46778452  0.03457351  0.37437712     0.17200
H207        H  0.26533391  0.06764506  0.36343582     0.17100
C208        C  0.37008845  0.06259043  0.30521743     0.31000
C209        C  0.36636875  0.06290828  0.14746612     0.31000
C210        C  0.40480586  0.03409553  0.27053584    -0.05200
C211        C  0.32957979  0.04109000  0.26560877    -0.06000
C212        C  0.36979924  0.10705344  0.26173236    -0.05800
C213        C  0.40202704  0.03368195  0.19134142    -0.05200
C214        C  0.32470365  0.04577435  0.18723584    -0.06000
C215        C  0.36926268  0.10755341  0.18347206    -0.05800
C216        C  0.40932179  0.99013632  0.17556671    -0.31200
N217        N  0.42028639  0.96559208  0.23708545     0.15300
C218        C  0.41451483  0.99059208  0.29424741    -0.31200
H219        H  0.41139517  0.97620819  0.34907436     0.17200
C220        C  0.28055843  0.03686211  0.17277189    -0.30200
N221        N  0.26665842  0.01252778  0.23052309     0.14000
C222        C  0.29860852  0.01131645  0.28530330    -0.30200
C223        C  0.34560397  0.14551408  0.15946917    -0.30500
N224        N  0.33702806  0.16986724  0.21640109     0.14500
H225        H  0.33291809  0.15443845  0.10370141     0.17100
C226        C  0.34475351  0.14317939  0.27661671    -0.30500
H227        H  0.33139590  0.14987025  0.32844094     0.17100
H228        H  0.29692749  0.99282896  0.33738544     0.17100
H229        H  0.40240205  0.97571619  0.12305118     0.17200
H230        H  0.25874408  0.04954819  0.12694792     0.17100
O231        O  0.41306515  0.39202189  0.46746505    -0.77500
C232        C  0.33344919  0.51790435  0.50081731     0.83600
O233        O  0.48211732  0.53939074  0.37386696    -0.78600
O234        O  0.43985138  0.59873582  0.96604329    -0.80100
O235        O  0.50093854  0.48020617  0.14531847    -0.79900
O236        O  0.47028002  0.37658533  0.04775111    -0.78500
Zn237      Zn  0.40916448  0.46167147  0.45447827     1.59700
O238        O  0.46402884  0.54228354  0.12459428    -0.79900
Cd239      Cd  0.49864313  0.44133470  0.05765367     1.59700
Cd240      Cd  0.51032372  0.53350700  0.47556391     1.59600
O241        O  0.56383544  0.43892554  0.02897950    -0.79900
O242        O  0.46087484  0.49000426  0.50324497    -1.90400
Cd243      Cd  0.42827371  0.54369477  0.02779503     1.59900
O244        O  0.57537229  0.50997145  0.48391301    -0.79800
O245        O  0.36073645  0.54554834  0.02490605    -0.78500
C246        C  0.46525936  0.50173386  0.36722902     0.84000
C247        C  0.43891321  0.36457322  0.50601632     0.83700
O248        O  0.34675673  0.48116634  0.47927251    -0.77500
C249        C  0.46440418  0.50099696  0.13865764     0.84500
O250        O  0.42340707  0.49794324  0.36570073    -0.77500
C251        C  0.59067161  0.47179659  0.50445043     0.84600
C252        C  0.47512039  0.61979572  0.48844786     0.85000
O253        O  0.50875480  0.59696404  0.51319950    -0.80000
O254        O  0.56761207  0.45128606  0.23280842    -0.77500
C255        C  0.48835735  0.58248899  0.24736177     0.83600
O256        O  0.47663260  0.42622290  0.40633341    -0.78600
O257        O  0.35118625  0.50884509  0.28035958    -0.80100
O258        O  0.42324801  0.43699165  0.10537020    -0.79900
O259        O  0.53726349  0.39544808  0.17413545    -0.78500
Zn260      Zn  0.51709182  0.48254706  0.27469582     1.55700
O261        O  0.38695702  0.49520038  0.13434564    -0.79900
Cd262      Cd  0.46765407  0.40837349  0.18313613     1.59700
Cd263      Cd  0.42143786  0.42079342  0.33448386     1.59600
O264        O  0.43989890  0.34939726  0.20496383    -0.79900
O265        O  0.45426664  0.45350196  0.25699981    -1.90400
Cd266      Cd  0.41194845  0.51034068  0.23538114     1.59900
O267        O  0.40958838  0.35748490  0.31132967    -0.79800
O268        O  0.44654161  0.57297791  0.24453254    -0.78500
C269        C  0.49366395  0.46308754  0.38963555     0.84000
C270        C  0.57173369  0.41584856  0.19957620     0.83700
O271        O  0.51826790  0.55182754  0.25269708    -0.77500
C272        C  0.42272175  0.47700488  0.12151006     0.84500
O273        O  0.53418738  0.46532970  0.37901078    -0.77500
C274        C  0.41684817  0.33526420  0.25655663     0.84600
C275        C  0.33180383  0.47679921  0.31224755     0.85000
O276        O  0.35399386  0.44306439  0.33992003    -0.80000
C277        C  0.33003010  0.24769520  0.24192124    -0.20300
C278        C  0.35566709  0.21274136  0.22077285    -0.08300
C279        C  0.40205218  0.21776631  0.21716019     0.30500
C280        C  0.42174017  0.25782731  0.22976769    -0.20300
C281        C  0.39614697  0.29275288  0.24997196    -0.08300
C282        C  0.35025185  0.28778328  0.25693243     0.30500
F283        F  0.32503037  0.32189162  0.27624313    -0.18900
H284        H  0.29482733  0.24347342  0.24812832     0.18900
H285        H  0.45723808  0.26135880  0.22542136     0.18900
F286        F  0.42893601  0.18306591  0.20710260    -0.18900
C287        C  0.39107878  0.25339223  0.44564518    -0.20300
C288        C  0.42138754  0.22241657  0.48066953    -0.08300
C289        C  0.45716628  0.23842073  0.52544446     0.30500
C290        C  0.45983838  0.28262391  0.03786338    -0.20300
C291        C  0.43200426  0.31543087  0.49921805    -0.08300
C292        C  0.39558995  0.29892359  0.45584980     0.30500
F293        F  0.36323833  0.32654556  0.42494834    -0.18900
H294        H  0.36247860  0.24196723  0.41282163     0.18900
H295        H  0.48715417  0.29374896  0.07391753     0.18900
F296        F  0.48335012  0.20831427  0.06862329    -0.18900
C297        C  0.21164588  0.50303749  0.24607092    -0.20300
C298        C  0.18751041  0.47256366  0.28764257    -0.08300
C299        C  0.21100101  0.44503604  0.34192018     0.30500
C300        C  0.25780811  0.44705760  0.35192363    -0.20300
C301        C  0.28196563  0.47762644  0.30973555    -0.08300
C302        C  0.25781555  0.50601478  0.25717154     0.30500
F303        F  0.27866902  0.53613329  0.21408991    -0.18900
H304        H  0.19471353  0.52535813  0.20576613     0.18900
H305        H  0.27514897  0.42454315  0.39228657     0.18900
F306        F  0.18877308  0.41562099  0.38409469    -0.18900
C307        C  0.22534730  0.58151792  0.48647637    -0.20300
C308        C  0.19628778  0.55021931  0.51445237    -0.08300
C309        C  0.21043884  0.50656664  0.02931031     0.30500
C310        C  0.25502210  0.49527372  0.02389458    -0.20300
C311        C  0.28585940  0.52792898  0.50279400    -0.08300
C312        C  0.26996507  0.57071902  0.48133243     0.30500
F313        F  0.29744220  0.60178853  0.45366966    -0.18900
H314        H  0.21321232  0.61418226  0.46815541     0.18900
H315        H  0.26581737  0.46142497  0.03591247     0.18900
F316        F  0.18103623  0.47461459  0.04676319    -0.18900
C317        C  0.21256855  0.96011917  0.27072995    -0.20300
C318        C  0.22234449  0.00241360  0.24320296    -0.08300
C319        C  0.19101933  0.03658868  0.24127708     0.30500
C320        C  0.14942067  0.02807206  0.26545386    -0.20300
C321        C  0.13917321  0.98556015  0.29253627    -0.08300
C322        C  0.17107147  0.95145951  0.29551842     0.30500
F323        F  0.16236487  0.90997602  0.32211157    -0.18900
H324        H  0.23763348  0.93429654  0.27441706     0.18900
H325        H  0.12533496  0.05477421  0.26308764     0.18900
F326        F  0.20164307  0.07856558  0.22017138    -0.18900
C327        C  0.99278827  0.74682603  0.21144597    -0.20300
C328        C  0.02290521  0.77855103  0.23742365    -0.08300
C329        C  0.06642388  0.76490314  0.26287684     0.30500
C330        C  0.07859465  0.72028240  0.26486012    -0.20300
C331        C  0.04815698  0.68878901  0.24015522    -0.08300
C332        C  0.00525546  0.70237553  0.21267464     0.30500
F333        F  0.97473872  0.67231827  0.19033553    -0.18900
H334        H  0.95928061  0.75631760  0.19118884     0.18900
H335        H  0.11161377  0.71009583  0.28647512     0.18900
F336        F  0.09682801  0.79430455  0.28844668    -0.18900
C337        C  0.20283926  0.97645601  0.50356415    -0.20300
C338        C  0.21445783  0.01715788  0.46921875    -0.08300
C339        C  0.17894316  0.04549736  0.44240022     0.30500
C340        C  0.13384637  0.03334700  0.44993846    -0.20300
C341        C  0.12217260  0.99204214  0.48285533    -0.08300
C342        C  0.15735940  0.96195577  0.01017077     0.30500
F343        F  0.14913397  0.92187321  0.04276079    -0.18900
H344        H  0.22814691  0.95133239  0.02521875     0.18900
H345        H  0.10788091  0.05619585  0.42847604     0.18900
F346        F  0.18767041  0.08550142  0.41005672    -0.18900
C347        C  0.93529448  0.69389111  0.46211270    -0.20300
C348        C  0.97502314  0.67145168  0.48316997    -0.08300
C349        C  0.01418623  0.69580156  0.49597978     0.30500
C350        C  0.01297966  0.74208810  0.49193571    -0.20300
C351        C  0.97270347  0.76495748  0.47427109    -0.08300
C352        C  0.93392735  0.74010596  0.45749687     0.30500
F353        F  0.89426191  0.76023193  0.43800890    -0.18900
H354        H  0.90515977  0.67547695  0.45038698     0.18900
H355        H  0.04337944  0.75995466  0.50431171     0.18900
F356        F  0.05359439  0.67462773  0.51234599    -0.18900
C357        C  0.54116521  0.64340172  0.21423826    -0.20300
C358        C  0.50285770  0.62954235  0.24864422    -0.08300
C359        C  0.48026819  0.66047204  0.28785645     0.30500
C360        C  0.49638349  0.70371804  0.29403352    -0.20300
C361        C  0.53435654  0.71769012  0.25877415    -0.08300
C362        C  0.55623701  0.68711468  0.21793927     0.30500
F363        F  0.59262815  0.69946799  0.18238799    -0.18900
H364        H  0.55917884  0.62042254  0.18352952     0.18900
H365        H  0.47845711  0.72679609  0.32463976     0.18900
F366        F  0.44293670  0.64867533  0.32119422    -0.18900
C367        C  0.77005371  0.96075870  0.19057516    -0.20300
C368        C  0.79932443  0.93149697  0.23283232    -0.08300
C369        C  0.78049182  0.90147404  0.28399124     0.30500
C370        C  0.73425095  0.90061300  0.29156789    -0.20300
C371        C  0.70503279  0.92885083  0.24753275    -0.08300
C372        C  0.72363941  0.95891380  0.19663721     0.30500
F373        F  0.69683845  0.98692957  0.15308384    -0.18900
H374        H  0.78303959  0.98482654  0.15178670     0.18900
H375        H  0.72107545  0.87690022  0.33075273     0.18900
F376        F  0.80677745  0.87329599  0.32819335    -0.18900
C377        C  0.43291111  0.69051498  0.47287645    -0.20300
C378        C  0.47359906  0.66798804  0.49086632    -0.08300
C379        C  0.51152553  0.69189051  0.51243781     0.30500
C380        C  0.50879529  0.73746541  0.51452262    -0.20300
C381        C  0.46812107  0.75964479  0.49780302    -0.08300
C382        C  0.43020065  0.73617053  0.47645687     0.30500
F383        F  0.39065687  0.75684126  0.95840100    -0.18900
H384        H  0.40193266  0.67184567  0.95934324     0.18900
H385        H  0.53875265  0.75591843  0.52708751     0.18900
F386        F  0.55123710  0.67152529  0.53034465    -0.18900
C387        C  0.70287394  0.89742681  0.51767569    -0.20300
C388        C  0.69651484  0.85183051  0.52878495    -0.08300
C389        C  0.73171037  0.82412878  0.05052218     0.30500
C390        C  0.77403372  0.84208797  0.05975666    -0.20300
C391        C  0.78127889  0.88765144  0.54895930    -0.08300
C392        C  0.74497105  0.91535470  0.52742156     0.30500
F393        F  0.75042679  0.95915883  0.51191288    -0.18900
H394        H  0.67486188  0.91898756  0.50101644     0.18900
H395        H  0.80188223  0.82032324  0.07651297     0.18900
F396        F  0.72564651  0.78024194  0.06389163    -0.18900
C397        C  0.97273802  0.15039122  0.33977467    -0.20300
C398        C  0.94208218  0.12374656  0.30083613    -0.08300
C399        C  0.90620853  0.14411889  0.25853888     0.30500
C400        C  0.90345200  0.18989047  0.24959282    -0.20300
C401        C  0.93561335  0.21658335  0.28409126    -0.08300
C402        C  0.96925439  0.19661709  0.33208817     0.30500
F403        F  0.99933924  0.22175190  0.36947951    -0.18900
H404        H  0.00031457  0.13554280  0.37369759     0.18900
H405        H  0.87575233  0.20458262  0.21645463     0.18900
F406        F  0.87367235  0.11974154  0.22555805    -0.18900
C407        C  0.69698845  0.40165316  0.23552450    -0.20300
C408        C  0.70351343  0.35737233  0.22087585    -0.08300
C409        C  0.66752253  0.33363432  0.18981424     0.30500
C410        C  0.62490347  0.35324687  0.17877592    -0.20300
C411        C  0.61777208  0.39722642  0.19702927    -0.08300
C412        C  0.65506939  0.42157822  0.22317605     0.30500
F413        F  0.65114695  0.46461896  0.23878614    -0.18900
H414        H  0.72475380  0.42091219  0.25670798     0.18900
H415        H  0.59729731  0.33359043  0.15836746     0.18900
F416        F  0.67333968  0.29113284  0.17260115    -0.18900
C417        C  0.92377275  0.14474578  0.02182252    -0.20300
C418        C  0.89513830  0.11034046  0.54325420    -0.08300
C419        C  0.85038230  0.11890537  0.55624418     0.30500
C420        C  0.83299380  0.16197561  0.54636185    -0.20300
C421        C  0.85976415  0.19690768  0.52296663    -0.08300
C422        C  0.90647335  0.18749349  0.01087850     0.30500
F423        F  0.93340242  0.22068635  0.98928298    -0.18900
H424        H  0.95783264  0.13880007  0.00939359     0.18900
H425        H  0.79846626  0.16804336  0.55556667     0.18900
F426        F  0.82287791  0.08546765  0.57493058    -0.18900
C427        C  0.65135417  0.41481139  0.00417614    -0.20300
C428        C  0.63798349  0.46114267  0.49479181    -0.08300
C429        C  0.66903029  0.49431781  0.47789107     0.30500
C430        C  0.71386706  0.48341862  0.47245347    -0.20300
C431        C  0.72808627  0.43947277  0.48241755    -0.08300
C432        C  0.69599466  0.40426951  0.99858663     0.30500
F433        F  0.70899092  0.36129863  0.00355503    -0.18900
H434        H  0.62805392  0.38822609  0.01213290     0.18900
H435        H  0.73767144  0.50920633  0.46226529     0.18900
F436        F  0.65648272  0.53733976  0.46832654    -0.18900
C437        C  0.85949264  0.35272093  0.92346351     0.31000
C438        C  0.85983422  0.35282644  0.58107903     0.31000
C439        C  0.90524679  0.35922035  0.96710464    -0.05200
C440        C  0.83143290  0.38815162  0.95847597    -0.06000
C441        C  0.84347619  0.31007356  0.96544067    -0.05800
C442        C  0.90537435  0.35749204  0.54620774    -0.05200
C443        C  0.83295303  0.38949933  0.53487480    -0.06000
C444        C  0.84114423  0.31141709  0.54326977    -0.05800
C445        C  0.94367747  0.37890646  0.56996305    -0.31200
N446        N  0.96795115  0.39144885  0.01002746     0.15300
C447        C  0.94412298  0.37930431  0.94802732    -0.31200
H448        H  0.95184514  0.38853780  0.89230807     0.17200
C449        C  0.79689845  0.41434838  0.55029392    -0.30200
N450        N  0.77438910  0.42843131  0.48638057     0.14000
C451        C  0.79435769  0.41263151  0.93288963    -0.30200
C452        C  0.84030681  0.26809758  0.56974751    -0.30500
N453        N  0.84241889  0.24116556  0.51321571     0.14500
H454        H  0.84389685  0.25694920  0.62692634     0.17100
C455        C  0.84452185  0.26586922  0.94986483    -0.30500
H456        H  0.84951420  0.25298144  0.89668149     0.17100
H457        H  0.78090607  0.41614236  0.87640208     0.17100
H458        H  0.95152240  0.38820559  0.62568074     0.17200
H459        H  0.78441718  0.41716825  0.60421457     0.17100
C460        C  0.85934384  0.35280256  0.67330349     0.31000
C461        C  0.85836547  0.35353492  0.83072039     0.31000
C462        C  0.86405723  0.39813674  0.70920663    -0.05200
C463        C  0.81700233  0.33507167  0.70844825    -0.06000
C464        C  0.89587852  0.32560620  0.72049832    -0.05800
C465        C  0.86362494  0.39852093  0.78750783    -0.05200
C466        C  0.81618196  0.33555247  0.78696255    -0.06000
C467        C  0.89569625  0.32675322  0.79869825    -0.05800
C468        C  0.88518836  0.43648193  0.80769035    -0.31200
N469        N  0.89912401  0.45871233  0.74672334     0.15300
C470        C  0.88564879  0.43595873  0.68689180    -0.31200
H471        H  0.89543359  0.44332249  0.63163569     0.17200
C472        C  0.77156889  0.33899342  0.79993439    -0.30200
N473        N  0.74591514  0.34024590  0.73523137     0.14000
C474        C  0.77329823  0.33708707  0.67990209    -0.30200
C475        C  0.91799197  0.28960786  0.82807848    -0.30500
N476        N  0.92888709  0.26436698  0.77304527     0.14500
H477        H  0.92031172  0.27854608  0.88544207     0.17100
C478        C  0.91647006  0.28623115  0.70786755    -0.30500
H479        H  0.91743916  0.27175588  0.65480970     0.17100
H480        H  0.76263326  0.34238474  0.62226957     0.17100
H481        H  0.89462782  0.44418913  0.86382210     0.17200
H482        H  0.75889971  0.34510148  0.85273057     0.17100
C483        C  0.54843259  0.88098502  0.57974637     0.31000
C484        C  0.54956514  0.88165081  0.92258664     0.31000
C485        C  0.55285811  0.92695955  0.53825995    -0.05200
C486        C  0.58459580  0.85368164  0.54735364    -0.06000
C487        C  0.50652497  0.86357459  0.53646118    -0.05800
C488        C  0.55282717  0.92744839  0.95928214    -0.05200
C489        C  0.58506086  0.85382057  0.96906793    -0.06000
C490        C  0.50686427  0.86389746  0.95697818    -0.05800
C491        C  0.52994544  0.96625143  0.93517242    -0.31200
N492        N  0.51586919  0.98795179  0.99310110     0.15300
C493        C  0.53141444  0.96531225  0.55503114    -0.31200
H494        H  0.52148141  0.97183198  0.60925553     0.17200
C495        C  0.62711958  0.84122017  0.95470692    -0.30200
N496        N  0.65199781  0.83489719  0.01922233     0.14000
C497        C  0.62568340  0.83998383  0.57652408    -0.30200
C498        C  0.48101965  0.82939814  0.93417456    -0.30500
N499        N  0.46766507  0.80589547  0.99344903     0.14500
H500        H  0.47978571  0.81694890  0.87958653     0.17100
C501        C  0.48065825  0.82836364  0.55616664    -0.30500
H502        H  0.47922156  0.81433981  0.61169488     0.17100
H503        H  0.63773517  0.84176031  0.63362546     0.17100
H504        H  0.51842105  0.97415639  0.87856650     0.17200
H505        H  0.64091158  0.84406674  0.90151518     0.17100
C506        C  0.55018695  0.87949746  0.67212188     0.31000
C507        C  0.55226561  0.87950919  0.83055733     0.31000
C508        C  0.50875870  0.89613981  0.70747761    -0.05200
C509        C  0.55682003  0.83415425  0.71656343    -0.06000
C510        C  0.58707188  0.90706444  0.71204220    -0.05800
C511        C  0.50995007  0.89598801  0.78513311    -0.05200
C512        C  0.55720262  0.83387872  0.79510780    -0.06000
C513        C  0.58905870  0.90665467  0.79075903    -0.05800
C514        C  0.47095445  0.91437133  0.80274018    -0.31200
N515        N  0.44737432  0.92836673  0.73974537     0.15300
C516        C  0.46919137  0.91548856  0.68145360    -0.31200
H517        H  0.45944908  0.92406075  0.62420612     0.17200
C518        C  0.55118323  0.79014898  0.81880060    -0.30200
N519        N  0.54754770  0.76446892  0.75944643     0.14000
C520        C  0.55182543  0.79085419  0.69780634    -0.30200
C521        C  0.63307300  0.91733610  0.81151876    -0.30500
N522        N  0.65645873  0.92544922  0.75065544     0.14500
H523        H  0.64785706  0.91659243  0.86732108     0.17100
C524        C  0.62834981  0.92001527  0.69046288    -0.30500
H525        H  0.63870731  0.92055743  0.63474621     0.17100
H526        H  0.54769293  0.77975131  0.64256140     0.17100
H527        H  0.46259552  0.92162438  0.85755996     0.17200
H528        H  0.54693948  0.77819452  0.87481260     0.17100
O529        O  0.92988505  0.83116797  0.96867348    -0.77500
C530        C  0.82583379  0.90416611  0.04311908     0.83600
O531        O  0.92544254  0.98929764  0.86835267    -0.78600
O532        O  0.89567306  0.03330577  0.58018271    -0.80100
O533        O  0.99296433  0.88571708  0.62941879    -0.79900
O534        O  0.00485432  0.83701036  0.49216951    -0.78500
Zn535      Zn  0.90577358  0.89423431  0.97079299     1.55700
O536        O  0.93256108  0.92094681  0.65130287    -0.79900
Cd537      Cd  0.00450505  0.90237793  0.52745024     1.59700
Cd538      Cd  0.96766957  0.99903652  0.96142932     1.59600
O539        O  0.06519859  0.93847804  0.51301221    -0.79900
O540        O  0.94536020  0.94167578  0.01136476    -1.90400
Cd541      Cd  0.90106228  0.96413045  0.57747290     1.59900
O542        O  0.04095837  0.00324357  0.96603742    -0.79800
O543        O  0.83615064  0.94391543  0.55730129    -0.78500
C544        C  0.92260413  0.94771919  0.87080692     0.84000
C545        C  0.96766976  0.81220550  0.97780760     0.83700
O546        O  0.85473886  0.87816228  0.02405629    -0.77500
C547        C  0.97377563  0.92098341  0.64092616     0.84500
O548        O  0.88544738  0.92937604  0.87921486    -0.77500
C549        C  0.07308794  0.97622954  0.98773060     0.84600
C550        C  0.91345381  0.06375608  0.04399057     0.85000
O551        O  0.94260430  0.05615027  0.99890840    -0.80000
O552        O  0.96572472  0.83640851  0.73988123    -0.77500
C553        C  0.96328759  0.92087486  0.88830500     0.83600
O554        O  0.86615548  0.96976039  0.70363606    -0.78600
O555        O  0.97519821  0.05593847  0.84332867    -0.80100
O556        O  0.08227456  0.93657634  0.81837470    -0.79900
O557        O  0.03692087  0.85454379  0.74219028    -0.78500
Zn558      Zn  0.94173959  0.89390545  0.77519768     1.55700
O559        O  0.06633284  0.00666542  0.80802608    -0.79900
Cd560      Cd  0.03375508  0.92401498  0.74178670     1.59700
Cd561      Cd  0.93345917  0.99494174  0.70113819     1.59600
O562        O  0.03952516  0.96167143  0.64414604    -0.79900
O563        O  0.97478912  0.95400034  0.76298848    -1.90400
Cd564      Cd  0.00383690  0.99330232  0.83565256     1.59900
O565        O  0.97673478  0.99835158  0.61690510    -0.79800
O566        O  0.00053120  0.93868647  0.90308145    -0.78500
C567        C  0.84857266  0.93387756  0.72891659     0.84000
C568        C  0.00658969  0.82538292  0.73900708     0.83700
O569        O  0.96184173  0.88092472  0.87582262    -0.77500
C570        C  0.09460524  0.97581066  0.80990969     0.84500
O571        O  0.87302623  0.90098453  0.75388840    -0.77500
C572        C  0.99803530  0.96216000  0.62609936     0.84600
C573        C  0.94916532  0.07663599  0.79498714     0.85000
O574        O  0.93189165  0.05762747  0.73928771    -0.80000
C575        C  0.03925246  0.53048992  0.92785666     0.31000
C576        C  0.04016152  0.53136231  0.58560116     0.31000
C577        C  0.03567701  0.48516485  0.97076529    -0.05200
C578        C  0.08032089  0.54972399  0.96984759    -0.06000
C579        C  0.00179631  0.55690493  0.96097142    -0.05800
C580        C  0.03463137  0.48621647  0.54932255    -0.05200
C581        C  0.08146997  0.54928037  0.54797171    -0.06000
C582        C  0.00292307  0.55917685  0.53978561    -0.05800
C583        C  0.01338126  0.44806230  0.57171128    -0.31200
N584        N  0.00183584  0.42385225  0.01115325     0.15300
C585        C  0.01488953  0.44681018  0.95030940    -0.31200
H586        H  0.00540147  0.43917102  0.89429131     0.17200
C587        C  0.12502549  0.55627981  0.57212734    -0.30200
N588        N  0.14961707  0.56074790  0.01269221     0.14000
C589        C  0.12273357  0.55814583  0.95059387    -0.30200
C590        C  0.98613505  0.60023169  0.55383032    -0.30500
N591        N  0.97437444  0.62180018  0.99060556     0.14500
H592        H  0.98609126  0.61399482  0.60729667     0.17100
C593        C  0.98323121  0.59670374  0.93411601    -0.30500
H594        H  0.98209283  0.60876222  0.87787093     0.17100
H595        H  0.13450409  0.55674372  0.89592306     0.17100
H596        H  0.00455351  0.44003161  0.62719660     0.17200
H597        H  0.13844554  0.55475856  0.62847423     0.17100
C598        C  0.04146894  0.53077961  0.67827962     0.31000
C599        C  0.04037473  0.53060885  0.83604027     0.31000
C600        C  0.99660267  0.52152228  0.71351499    -0.05200
C601        C  0.07270866  0.49682716  0.72518221    -0.06000
C602        C  0.05546495  0.57374678  0.71631057    -0.05800
C603        C  0.99625808  0.52144395  0.79131616    -0.05200
C604        C  0.07159452  0.49652968  0.80393542    -0.06000
C605        C  0.05469807  0.57374867  0.79429074    -0.05800
C606        C  0.95680832  0.50281451  0.80998510    -0.31200
N607        N  0.93353958  0.49046984  0.74781402     0.15300
C608        C  0.95693640  0.50296231  0.68882126    -0.31200
H609        H  0.94797418  0.49542213  0.63258238     0.17200
C610        C  0.11230480  0.48018846  0.83328986    -0.30200
N611        N  0.13892309  0.47256519  0.77843739     0.14000
C612        C  0.11507419  0.48194271  0.71317463    -0.30200
C613        C  0.05789065  0.61727849  0.81223026    -0.30500
N614        N  0.05962723  0.64333027  0.74957450     0.14500
H615        H  0.05470275  0.62973916  0.86627474     0.17100
C616        C  0.06004276  0.61712207  0.69153025    -0.30500
H617        H  0.05884981  0.62928181  0.63472166     0.17100
H618        H  0.12921227  0.48237707  0.66053841     0.17100
H619        H  0.94803124  0.49489153  0.86568891     0.17200
H620        H  0.12406204  0.47997108  0.89083196     0.17100
C621        C  0.37226892  0.06427712  0.55498195     0.31000
C622        C  0.37143670  0.06694411  0.89733320     0.31000
C623        C  0.41028011  0.03837719  0.52092533    -0.05200
C624        C  0.33130154  0.04630861  0.50887747    -0.06000
C625        C  0.38142984  0.11058539  0.51449681    -0.05800
C626        C  0.40928065  0.03875417  0.94243114    -0.05200
C627        C  0.32753904  0.05338114  0.93394056    -0.06000
C628        C  0.38067918  0.11126598  0.93630179    -0.05800
C629        C  0.45307128  0.02915396  0.92695367    -0.31200
N630        N  0.47778933  0.01633209  0.98917186     0.15300
C631        C  0.45383887  0.02647570  0.54630392    -0.31200
H632        H  0.46800739  0.02654178  0.60232606     0.17200
C633        C  0.28149166  0.05150431  0.91462537    -0.30200
N634        N  0.26088220  0.02820797  0.96836091     0.14000
C635        C  0.29384277  0.02148276  0.52130258    -0.30200
C636        C  0.40074883  0.15143095  0.91713198    -0.30500
N637        N  0.41171526  0.17360059  0.97845513     0.14500
H638        H  0.40925931  0.16326143  0.86306001     0.17100
C639        C  0.40422024  0.14821841  0.53645772    -0.30500
H640        H  0.41570942  0.15520288  0.59171181     0.17100
H641        H  0.29132929  0.99633123  0.56469505     0.17100
H642        H  0.46720664  0.03322132  0.87427264     0.17200
H643        H  0.26457017  0.06452622  0.86376884     0.17100
C644        C  0.36931095  0.06237553  0.80513112     0.31000
C645        C  0.36638580  0.06377609  0.64727526     0.31000
C646        C  0.40398726  0.03403601  0.77037496    -0.05200
C647        C  0.32876103  0.04152138  0.76467161    -0.06000
C648        C  0.36943982  0.10718429  0.76243226    -0.05800
C649        C  0.40170395  0.03415223  0.69118215    -0.05200
C650        C  0.32435182  0.04664261  0.68631825    -0.06000
C651        C  0.36929578  0.10815806  0.68406681    -0.05800
C652        C  0.40909903  0.99071596  0.67485714    -0.31200
N653        N  0.41955647  0.96580646  0.73621732     0.15300
C654        C  0.41330485  0.99044387  0.79357789    -0.31200
H655        H  0.40970244  0.97578912  0.84809625     0.17200
C656        C  0.28074229  0.03616030  0.67063480    -0.30200
N657        N  0.26694818  0.01101506  0.72757272     0.14000
C658        C  0.29854009  0.01052488  0.78298286    -0.30200
C659        C  0.34547597  0.14604376  0.66033444    -0.30500
N660        N  0.33635663  0.17001228  0.71746457     0.14500
H661        H  0.33315819  0.15522162  0.60446910     0.17100
C662        C  0.34416598  0.14317738  0.77749631    -0.30500
H663        H  0.33054101  0.14954513  0.82926521     0.17100
H664        H  0.29710787  0.99155954  0.83466356     0.17100
H665        H  0.40254462  0.97659401  0.62200902     0.17200
H666        H  0.25892677  0.04884056  0.62487747     0.17100
O667        O  0.41207177  0.39041837  0.96697580    -0.77500
C668        C  0.33304482  0.51716220  0.00248855     0.83600
O669        O  0.48264622  0.53794740  0.87470047    -0.78600
O670        O  0.44104882  0.60014498  0.46391239    -0.80100
O671        O  0.49899773  0.48390864  0.64491467    -0.79900
O672        O  0.47157039  0.37862570  0.54770498    -0.78500
Zn673      Zn  0.40823453  0.46025079  0.95413616     1.59700
O674        O  0.46187794  0.54595947  0.62469208    -0.79900
Cd675      Cd  0.49959171  0.44374173  0.55892696     1.59700
Cd676      Cd  0.50947623  0.53184437  0.97708591     1.59600
O677        O  0.56549719  0.44201562  0.53058600    -0.79900
O678        O  0.45970965  0.48811354  0.00294812    -1.90400
Cd679      Cd  0.42848001  0.54568652  0.52587570     1.59900
O680        O  0.57438030  0.50787984  0.98766390    -0.79800
O681        O  0.36083134  0.54710667  0.52107919    -0.78500
C682        C  0.46548618  0.50047543  0.86774928     0.84000
C683        C  0.43752755  0.36280116  0.00606502     0.83700
O684        O  0.34597953  0.48080109  0.97881873    -0.77500
C685        C  0.46235405  0.50462738  0.63836146     0.84500
O686        O  0.42361227  0.49692622  0.86662591    -0.77500
C687        C  0.58939356  0.46934332  0.00644314     0.84600
C688        C  0.47420625  0.61857576  0.98888061     0.85000
O689        O  0.50793534  0.59581491  0.01349867    -0.80000
O690        O  0.56446030  0.45293226  0.72850785    -0.77500
C691        C  0.48729613  0.58345326  0.74976753     0.83600
O692        O  0.47665543  0.42490533  0.90603212    -0.78600
O693        O  0.35055869  0.50860020  0.78455138    -0.80100
O694        O  0.42163334  0.44128993  0.60130522    -0.79900
O695        O  0.53428439  0.39519332  0.67488892    -0.78500
Zn696      Zn  0.51537387  0.48326700  0.77323878     1.55700
O697        O  0.38509623  0.49819555  0.63547518    -0.79900
Cd698      Cd  0.46450697  0.41057144  0.67926790     1.59700
Cd699      Cd  0.42142408  0.42031362  0.83376059     1.59600
O700        O  0.43348443  0.35277134  0.69791958    -0.79900
O701        O  0.45259331  0.45444675  0.75547056    -1.90400
Cd702      Cd  0.41059898  0.51147504  0.73726401     1.59900
O703        O  0.41038961  0.35702134  0.81070907    -0.79800
O704        O  0.44548463  0.57395936  0.74798929    -0.78500
C705        C  0.49377779  0.46170309  0.88906346     0.84000
C706        C  0.56861592  0.41607231  0.69979373     0.83700
O707        O  0.51708510  0.55272709  0.75333536    -0.77500
C708        C  0.42085647  0.48078398  0.62027014     0.84500
O709        O  0.53412827  0.46385983  0.87691899    -0.77500
C710        C  0.41368340  0.33694038  0.75227190     0.84600
C711        C  0.33133228  0.47571900  0.81438410     0.85000
O712        O  0.35369604  0.44153858  0.83973334    -0.80000
C713        C  0.32805168  0.24802504  0.74193029    -0.20300
C714        C  0.35429222  0.21316472  0.72193112    -0.08300
C715        C  0.40051445  0.21889017  0.71756447     0.30500
C716        C  0.41940760  0.25957735  0.72736497    -0.20300
C717        C  0.39324809  0.29439595  0.74610485    -0.08300
C718        C  0.34758991  0.28877974  0.75462078     0.30500
F719        F  0.32205347  0.32276646  0.77355727    -0.18900
H720        H  0.29298817  0.24328925  0.74881969     0.18900
H721        H  0.45479558  0.26366423  0.72236435     0.18900
F722        F  0.42798058  0.18440714  0.70892702    -0.18900
C723        C  0.39081409  0.25142383  0.94476469    -0.20300
C724        C  0.42044894  0.22062779  0.98212115    -0.08300
C725        C  0.45465085  0.23681734  0.02995028     0.30500
C726        C  0.46271967  0.28422648  0.53360553    -0.20300
C727        C  0.43021653  0.31368978  0.00027194    -0.08300
C728        C  0.39480652  0.29700386  0.95491214     0.30500
F729        F  0.36297975  0.32447320  0.92189294    -0.18900
H730        H  0.36311780  0.23984012  0.91002598     0.18900
H731        H  0.49109059  0.29523261  0.56742376     0.18900
F732        F  0.48695842  0.20971033  0.56095301    -0.18900
C733        C  0.21103421  0.50608323  0.75458004    -0.20300
C734        C  0.18700184  0.47224897  0.78846207    -0.08300
C735        C  0.21041715  0.44095272  0.83641439     0.30500
C736        C  0.25722923  0.44264072  0.84726105    -0.20300
C737        C  0.28143467  0.47644992  0.81230088    -0.08300
C738        C  0.25722023  0.50856236  0.76648638     0.30500
F739        F  0.27804176  0.54204913  0.73074079    -0.18900
H740        H  0.19379626  0.53131767  0.71946375     0.18900
H741        H  0.27452918  0.41725523  0.88226554     0.18900
F742        F  0.18807502  0.40826873  0.87131567    -0.18900
C743        C  0.22593559  0.58256026  0.99261111    -0.20300
C744        C  0.19590373  0.55041672  0.01450896    -0.08300
C745        C  0.21183655  0.50724465  0.53494333     0.30500
C746        C  0.25639474  0.49610662  0.52873139    -0.20300
C747        C  0.28551172  0.52776431  0.00416736    -0.08300
C748        C  0.27055656  0.57150843  0.98790330     0.30500
F749        F  0.29890123  0.60331813  0.96537354    -0.18900
H750        H  0.21457483  0.61600965  0.97849041     0.18900
H751        H  0.26800106  0.46299464  0.54506196     0.18900
F752        F  0.18347555  0.47580951  0.55849240    -0.18900
C753        C  0.21347675  0.95910089  0.77256805    -0.20300
C754        C  0.22255766  0.00034799  0.73963862    -0.08300
C755        C  0.19031404  0.03385535  0.73273737     0.30500
C756        C  0.14905983  0.02600136  0.75870668    -0.20300
C757        C  0.13971364  0.98474468  0.79181916    -0.08300
C758        C  0.17217746  0.95112993  0.79890181     0.30500
F759        F  0.16430843  0.91097214  0.83173286    -0.18900
H760        H  0.23904220  0.93378208  0.77986364     0.18900
H761        H  0.12439264  0.05222669  0.75254384     0.18900
F762        F  0.19967913  0.07496005  0.70537283    -0.18900
C763        C  0.99076797  0.74539806  0.75993344    -0.20300
C764        C  0.01912032  0.77839658  0.73420208    -0.08300
C765        C  0.06024319  0.76588082  0.70858741     0.30500
C766        C  0.07353336  0.72137095  0.71304485    -0.20300
C767        C  0.04610003  0.68893218  0.74301002    -0.08300
C768        C  0.00395646  0.70118014  0.76388898     0.30500
F769        F  0.97510605  0.67013442  0.78677408    -0.18900
H770        H  0.95868254  0.75388617  0.77879443     0.18900
H771        H  0.10538456  0.71220101  0.69414037     0.18900
F772        F  0.08742010  0.79653644  0.67895668    -0.18900
C773        C  0.20224185  0.97430123  0.00398524    -0.20300
C774        C  0.21396349  0.01521434  0.97054237    -0.08300
C775        C  0.17862111  0.04400701  0.94481271     0.30500
C776        C  0.13350826  0.03193897  0.95193590    -0.20300
C777        C  0.12170605  0.99038810  0.98375742    -0.08300
C778        C  0.15800321  0.96392600  0.50979155     0.30500
F779        F  0.15003450  0.92387788  0.54272679    -0.18900
H780        H  0.22877763  0.95369490  0.52535946     0.18900
H781        H  0.10764484  0.05512405  0.93132907     0.18900
F782        F  0.18760448  0.08451711  0.91463811    -0.18900
C783        C  0.93264877  0.69163248  0.96506061    -0.20300
C784        C  0.97275353  0.66934146  0.98437072    -0.08300
C785        C  0.01184957  0.69402086  0.99547345     0.30500
C786        C  0.01041677  0.74032347  0.99072690    -0.20300
C787        C  0.96996964  0.76308356  0.97409836    -0.08300
C788        C  0.93104679  0.73794029  0.95984961     0.30500
F789        F  0.89106911  0.75786193  0.94219005    -0.18900
H790        H  0.90246087  0.67305461  0.95490059     0.18900
H791        H  0.04089837  0.75831865  0.00148026     0.18900
F792        F  0.05151417  0.67316050  0.01069357    -0.18900
C793        C  0.54035684  0.64417350  0.71648957    -0.20300
C794        C  0.50196153  0.63052043  0.75090952    -0.08300
C795        C  0.47920166  0.66180048  0.78916735     0.30500
C796        C  0.49519370  0.70517527  0.79431478    -0.20300
C797        C  0.53328993  0.71886257  0.75911319    -0.08300
C798        C  0.55533148  0.68796280  0.71923657     0.30500
F799        F  0.59180897  0.70009702  0.68373810    -0.18900
H800        H  0.55850027  0.62097462  0.68640895     0.18900
H801        H  0.47715223  0.72852569  0.82422406     0.18900
F802        F  0.44183225  0.65022435  0.82256618    -0.18900
C803        C  0.76984612  0.96148447  0.69327782    -0.20300
C804        C  0.79876271  0.93123886  0.73403635    -0.08300
C805        C  0.77957964  0.90046757  0.78367638     0.30500
C806        C  0.73328383  0.89973545  0.79073395    -0.20300
C807        C  0.70450492  0.92918905  0.74832138    -0.08300
C808        C  0.72347208  0.96012010  0.69940137     0.30500
F809        F  0.69707120  0.98961250  0.65817876    -0.18900
H810        H  0.78311867  0.98617781  0.65585856     0.18900
H811        H  0.71973650  0.87542436  0.82851804     0.18900
F812        F  0.80552910  0.87162830  0.82718860    -0.18900
C813        C  0.43221101  0.68961244  0.97326976    -0.20300
C814        C  0.47304074  0.66697895  0.98928869    -0.08300
C815        C  0.51158447  0.69102592  0.00675006     0.30500
C816        C  0.50910130  0.73668356  0.00867971    -0.20300
C817        C  0.46829317  0.75894647  0.99405583    -0.08300
C818        C  0.42992734  0.73543741  0.97515961     0.30500
F819        F  0.39102908  0.75750179  0.45843326    -0.18900
H820        H  0.40306916  0.67281471  0.45616870     0.18900
H821        H  0.53922535  0.75512500  0.02031093     0.18900
F822        F  0.55161902  0.67066596  0.02104854    -0.18900
C823        C  0.70221168  0.89714013  0.01424737    -0.20300
C824        C  0.69593467  0.85158358  0.02641423    -0.08300
C825        C  0.73223670  0.82422114  0.55277782     0.30500
C826        C  0.77460727  0.84209111  0.56261110    -0.20300
C827        C  0.78061421  0.88761023  0.04549106    -0.08300
C828        C  0.74432198  0.91514955  0.02316306     0.30500
F829        F  0.74979593  0.95880784  0.00631813    -0.18900
H830        H  0.67413762  0.91860182  0.99753398     0.18900
H831        H  0.80242256  0.82022871  0.57899979     0.18900
F832        F  0.72613280  0.78025635  0.56511328    -0.18900
C833        C  0.97191261  0.15139387  0.83643683    -0.20300
C834        C  0.94058371  0.12447317  0.79963304    -0.08300
C835        C  0.90392612  0.14458363  0.75873713     0.30500
C836        C  0.90071185  0.19038758  0.75007431    -0.20300
C837        C  0.93349491  0.21724028  0.78257649    -0.08300
C838        C  0.96821439  0.19754513  0.82841105     0.30500
F839        F  0.99920054  0.22292624  0.86318751    -0.18900
H840        H  0.00024281  0.13680321  0.86873633     0.18900
H841        H  0.87241430  0.20499913  0.71822232     0.18900
F842        F  0.87130695  0.12000514  0.72629333    -0.18900
C843        C  0.69009182  0.39500758  0.76254089    -0.20300
C844        C  0.70110544  0.35790136  0.72495973    -0.08300
C845        C  0.66870477  0.34068769  0.67467888     0.30500
C846        C  0.62557868  0.35951830  0.66503611    -0.20300
C847        C  0.61467861  0.39686855  0.70325946    -0.08300
C848        C  0.64806700  0.41439788  0.75189930     0.30500
F849        F  0.64014261  0.44981111  0.79186867    -0.18900
H850        H  0.71450794  0.40966340  0.79993396     0.18900
H851        H  0.60087592  0.34499257  0.62785670     0.18900
F852        F  0.67850698  0.30524154  0.63616810    -0.18900
C853        C  0.92211634  0.14588751  0.52251310    -0.20300
C854        C  0.89724649  0.10980941  0.04675937    -0.08300
C855        C  0.85328185  0.11907687  0.06341494     0.30500
C856        C  0.83596295  0.16206453  0.05206665    -0.20300
C857        C  0.86196527  0.19616264  0.02345762    -0.08300
C858        C  0.90477940  0.18873539  0.51322614     0.30500
F859        F  0.93208033  0.22249200  0.49566828    -0.18900
H860        H  0.95664954  0.14039242  0.51252154     0.18900
H861        H  0.80204973  0.16872956  0.06440289     0.18900
F862        F  0.82648061  0.08642681  0.08783101    -0.18900
C863        C  0.65245253  0.41692608  0.50144633    -0.20300
C864        C  0.63698674  0.45906176  0.99963827    -0.08300
C865        C  0.66849086  0.49265416  0.98843356     0.30500
C866        C  0.71337949  0.48190410  0.98360188    -0.20300
C867        C  0.72728613  0.43778543  0.98905934    -0.08300
C868        C  0.69697551  0.40618607  0.49485221     0.30500
F869        F  0.71011458  0.36326918  0.50182026    -0.18900
H870        H  0.62933079  0.39056540  0.51182720     0.18900
H871        H  0.73747815  0.50791338  0.97694868     0.18900
F872        F  0.65628867  0.53585465  0.98393847    -0.18900
loop_ 
_geom_bond_atom_site_label_1 
_geom_bond_atom_site_label_2 
_geom_bond_distance 
_geom_bond_site_symmetry_2 
_ccdc_geom_bond_type 
C1            C3   1.560       .  S
C1            C5   1.561       .  S
C1            C4   1.552       .  S
C1           C25   1.681       .  S
C2            C6   1.555       .  S
C2            C8   1.548       .  S
C2            C7   1.548       .  S
C2           C24   1.676       .  S
C3           C11   1.381       .  A
C3          C442   1.428       .  A
C4           C15   1.380       .  A
C4          C443   1.424       .  A
C5           C19   1.385       .  A
C5          C444   1.428       .  A
C6            C9   1.379       .  A
C6          C439   1.425   1_554  A
C7           C13   1.374       .  A
C7          C440   1.424   1_554  A
C8           C16   1.373       .  A
C8          C441   1.428   1_554  A
C9           H22   1.080       .  S
C9          N446   1.361       .  A
N10          C11   1.361       .  A
N10         C445   1.360       .  A
N10         N148   1.420       .  S
C11          H12   1.075       .  S
C13          H23   1.082       .  S
C13          N14   1.353   1_554  A
N14         C451   1.357       .  A
N14         C867   1.430       .  S
C15          H21   1.080       .  S
C15         N450   1.355       .  A
C16          H18   1.073       .  S
C16          N17   1.350       .  A
N17         C455   1.359   1_554  A
N17         C857   1.436       .  S
C19          H20   1.082       .  S
C19         N453   1.358       .  A
C24          C26   1.553       .  S
C24          C28   1.557       .  S
C24          C27   1.553       .  S
C25          C29   1.552       .  S
C25          C31   1.552       .  S
C25          C30   1.566       .  S
C26          C34   1.376       .  A
C26          C29   1.424       .  A
C27          C38   1.381       .  A
C27          C30   1.430       .  A
C28          C42   1.382       .  A
C28          C31   1.426       .  A
C29          C32   1.379       .  A
C30          C36   1.389       .  A
C31          C39   1.377       .  A
C32          H45   1.077       .  S
C32          N33   1.361       .  A
N33          C34   1.358       .  A
N33         N171   1.417       .  S
C34          H35   1.082       .  S
C36          H46   1.082       .  S
C36          N37   1.360       .  A
N37          C38   1.351       .  A
N37         C408   1.443       .  S
C38          H44   1.079       .  S
C39          H41   1.076       .  S
C39          N40   1.351       .  A
N40          C42   1.358       .  A
N40         C401   1.438       .  S
C42          H43   1.082       .  S
C47          C49   1.564       .  S
C47          C51   1.554       .  S
C47          C50   1.536       .  S
C47          C70   1.679       .  S
C48          C52   1.578       .  S
C48          C54   1.557       .  S
C48          C53   1.540       .  S
C48          C71   1.690       .  S
C49          C57   1.388       .  A
C49         C488   1.441   1_554  A
C50          C61   1.368       .  A
C50         C489   1.411   1_554  A
C51          C65   1.375       .  A
C51         C490   1.438   1_554  A
C52          C55   1.400       .  A
C52         C485   1.442       .  A
C53          C59   1.371       .  A
C53         C486   1.411       .  A
C54          C62   1.371       .  A
C54         C487   1.437       .  A
C55          H68   1.079       .  S
C55          N56   1.364       .  A
N56         C493   1.355       .  A
N56         N194   1.429   1_565  S
C57          H58   1.078       .  S
C57         N492   1.356   1_554  A
C59          H69   1.080       .  S
C59          N60   1.354       .  A
N60         C497   1.350       .  A
N60         C388   1.421       .  S
C61          H67   1.081       .  S
C61         N496   1.350       .  A
C62          H64   1.080       .  S
C62          N63   1.349       .  A
N63         C501   1.351       .  A
N63         C381   1.422       .  S
C65          H66   1.080       .  S
C65         N499   1.352   1_554  A
C70          C72   1.541       .  S
C70          C74   1.557       .  S
C70          C73   1.564       .  S
C71          C75   1.538       .  S
C71          C77   1.579       .  S
C71          C76   1.572       .  S
C72          C80   1.372       .  A
C72          C75   1.411       .  A
C73          C84   1.381       .  A
C73          C76   1.430       .  A
C74          C88   1.384       .  A
C74          C77   1.429       .  A
C75          C78   1.365       .  A
C76          C82   1.391       .  A
C77          C85   1.400       .  A
C78          H91   1.079       .  S
C78          N79   1.354       .  A
N79          C80   1.360       .  A
N79         N217   1.406       .  S
C80          H81   1.081       .  S
C82          H92   1.081       .  S
C82          N83   1.364       .  A
N83          C84   1.358       .  A
N83         C361   1.451       .  S
C84          H90   1.080       .  S
C85          H87   1.080       .  S
C85          N86   1.367       .  A
N86          C88   1.356       .  A
N86         C371   1.459       .  S
C88          H89   1.081       .  S
O93         C109   1.271       .  A
O93         Zn99   2.039       .  S
C94         O110   1.254       .  A
C94         O543   1.265       .  A
C94         C391   1.459       .  S
O95         C108   1.264       .  A
O95        Cd102   2.084       .  S
O96         C550   1.277       .  A
O96        Cd105   2.110   1_545  S
O97         C111   1.250       .  A
O97        Cd101   1.957   1_655  S
O98         C545   1.280   1_455  A
O98        Cd101   2.123   1_556  S
Zn99        O110   1.936       .  S
Zn99        O112   1.992       .  S
Zn99        O104   2.010       .  S
O100        C111   1.272       .  A
O100       Cd105   2.017       .  S
Cd101       O103   2.165       .  S
Cd101       O540   2.141   1_455  S
Cd102       O106   2.218   1_665  S
Cd102       O115   2.066   1_565  S
Cd102       O104   2.051       .  S
O103        C549   1.290   1_554  A
O104       Cd537   2.141   1_655  S
O104       Cd541   2.005       .  S
Cd105       O107   2.073       .  S
Cd105       O540   1.999       .  S
O106        C113   1.295   1_545  A
O107        C530   1.265       .  A
C108        O112   1.268       .  A
C108        C117   1.476       .  S
C109        O534   1.279   1_655  A
C109        C351   1.493       .  S
C111        C136   1.473       .  S
C113        O539   1.289       .  A
C113        C341   1.537       .  S
C114        O115   1.274       .  A
C114        O532   1.277       .  A
C114        C418   1.485       .  S
O116        C132   1.279   1_655  A
O116       Zn122   2.053       .  S
C117        O133   1.246       .  A
C117        O130   1.268   1_655  A
O118        C131   1.290       .  A
O118       Cd125   2.173       .  S
O119        C137   1.274       .  A
O119       Cd128   2.093   1_645  S
O120        C134   1.252       .  A
O120       Cd124   1.996       .  S
O121        C132   1.273       .  A
O121       Cd124   2.091       .  S
Zn122       O133   1.909       .  S
Zn122       O135   2.094       .  S
Zn122       O127   2.087       .  S
O123        C134   1.260   1_545  A
O123       Cd128   2.017   1_545  S
Cd124       O126   2.075       .  S
Cd124       O127   2.055   1_455  S
Cd125       O129   2.079       .  S
Cd125       O138   2.066   1_565  S
Cd125       O127   1.995       .  S
O126        C136   1.271   1_455  A
O127       Cd128   1.984   1_655  S
Cd128       O130   2.018       .  S
O129        C136   1.268       .  A
C131        O135   1.285       .  A
C131        C368   1.514       .  S
C132        C328   1.483       .  S
C134        C321   1.444       .  S
C137        O138   1.274       .  A
C137        C398   1.481       .  S
C139        C141   1.554       .  S
C139        C143   1.557       .  S
C139        C142   1.543       .  S
C139        C163   1.677       .  S
C140        C144   1.556       .  S
C140        C146   1.567       .  S
C140        C145   1.550       .  S
C140        C162   1.682       .  S
C141        C149   1.380       .  A
C141        C580   1.425       .  A
C142        C153   1.371       .  A
C142        C581   1.418       .  A
C143        C157   1.381   1_455  A
C143        C582   1.441       .  A
C144        C147   1.381       .  A
C144        C577   1.425   1_554  A
C145        C151   1.377       .  A
C145        C578   1.417   1_554  A
C146        C154   1.385   1_455  A
C146        C579   1.438   1_554  A
C147        H160   1.079       .  S
C147        N584   1.361       .  A
N148        C149   1.359   1_655  A
N148        C583   1.360   1_655  A
C149        H150   1.077       .  S
C151        H161   1.069       .  S
C151        N588   1.357       .  A
N152        C153   1.350       .  A
N152        C587   1.356       .  A
N152        C308   1.428       .  S
C153        H159   1.083       .  S
C154        H156   1.078       .  S
C154        N591   1.354   1_554  A
N155        C157   1.350       .  A
N155        C590   1.354       .  A
N155        C348   1.438       .  S
C157        H158   1.078       .  S
C162        C164   1.553   1_455  S
C162        C166   1.550       .  S
C162        C165   1.568       .  S
C163        C167   1.547   1_455  S
C163        C169   1.557       .  S
C163        C168   1.562       .  S
C164        C172   1.377       .  A
C164        C167   1.417       .  A
C165        C176   1.386       .  A
C165        C168   1.436       .  A
C166        C180   1.375       .  A
C166        C169   1.421       .  A
C167        C170   1.376       .  A
C168        C174   1.385       .  A
C169        C177   1.381       .  A
C170        H183   1.079       .  S
C170        N171   1.360       .  A
N171        C172   1.362       .  A
C172        H173   1.080       .  S
C174        H184   1.079       .  S
C174        N175   1.354       .  A
N175        C176   1.361       .  A
N175        C298   1.450       .  S
C176        H182   1.080       .  S
C177        H179   1.080       .  S
C177        N178   1.357       .  A
N178        C180   1.353       .  A
N178        C331   1.434       .  S
C180        H181   1.081       .  S
C185        C187   1.567       .  S
C185        C189   1.581       .  S
C185        C188   1.561       .  S
C185        C209   1.698       .  S
C186        C190   1.578       .  S
C186        C192   1.571       .  S
C186        C191   1.568       .  S
C186        C208   1.687       .  S
C187        C195   1.401       .  A
C187        C626   1.427   1_554  A
C188        C199   1.387       .  A
C188        C627   1.385   1_554  A
C189        C203   1.394       .  A
C189        C628   1.426   1_554  A
C190        C193   1.401       .  A
C190        C623   1.426       .  A
C191        C197   1.411       .  A
C191        C624   1.382       .  A
C192        C200   1.401       .  A
C192        C625   1.428       .  A
C193        H206   1.077       .  S
C193        N194   1.350       .  A
N194        C631   1.355       .  A
C195        H196   1.077       .  S
C195        N630   1.354   1_554  A
C197        H207   1.081       .  S
C197        N198   1.364       .  A
N198        C635   1.355       .  A
N198        C338   1.474       .  S
C199        H205   1.076   1_545  S
C199        N634   1.355   1_554  A
C200        H202   1.079       .  S
C200        N201   1.356       .  A
N201        C639   1.352       .  A
N201        C288   1.457       .  S
C203        H204   1.071       .  S
C203        N637   1.350   1_554  A
C208        C210   1.544       .  S
C208        C212   1.528       .  S
C208        C211   1.539       .  S
C209        C213   1.543       .  S
C209        C215   1.535       .  S
C209        C214   1.570       .  S
C210        C218   1.391   1_545  A
C210        C213   1.439       .  A
C211        C222   1.355       .  A
C211        C214   1.423       .  A
C212        C226   1.378       .  A
C212        C215   1.423       .  A
C213        C216   1.387   1_545  A
C214        C220   1.370       .  A
C215        C223   1.388       .  A
C216        H229   1.079       .  S
C216        N217   1.333       .  A
N217        C218   1.339       .  A
C218        H219   1.079       .  S
C220        H230   1.079       .  S
C220        N221   1.345       .  A
N221        C222   1.336       .  A
N221        C318   1.404       .  S
C222        H228   1.081   1_545  S
C223        H225   1.080       .  S
C223        N224   1.342       .  A
N224        C226   1.335       .  A
N224        C278   1.423       .  S
C226        H227   1.079       .  S
O231        C247   1.285       .  A
O231       Zn237   2.116       .  S
C232        O248   1.273       .  A
C232        O681   1.265       .  A
C232        C311   1.469       .  S
O233        C246   1.260       .  A
O233       Cd240   1.982       .  S
O234        C688   1.257       .  A
O234       Cd243   2.010   1_556  S
O235        C249   1.263       .  A
O235       Cd239   2.030       .  S
O236        C683   1.287       .  A
O236       Cd239   2.157       .  S
Zn237       O248   2.057       .  S
Zn237       O250   1.980       .  S
Zn237       O242   1.963       .  S
O238        C249   1.265       .  A
O238       Cd243   1.999       .  S
Cd239       O241   2.071       .  S
Cd239       O678   2.016       .  S
Cd240       O244   2.078       .  S
Cd240       O253   2.078       .  S
Cd240       O242   2.066       .  S
O241        C687   1.274       .  A
O242       Cd675   2.009       .  S
O242       Cd679   2.024       .  S
Cd243       O245   2.034       .  S
Cd243       O678   2.019       .  S
O244        C251   1.273       .  A
O245        C668   1.265       .  A
C246        O250   1.266       .  A
C246        C269   1.473       .  S
C247        O672   1.288       .  A
C247        C291   1.517       .  S
C249        C272   1.477       .  S
C251        O677   1.277       .  A
C251        C428   1.486       .  S
C252        O253   1.269       .  A
C252        O670   1.256       .  A
C252        C378   1.466       .  S
O254        C270   1.271       .  A
O254       Zn260   2.007       .  S
C255        O271   1.289       .  A
C255        O268   1.293       .  A
C255        C358   1.496       .  S
O256        C269   1.264       .  A
O256       Cd263   2.056       .  S
O257        C275   1.272       .  A
O257       Cd266   2.058       .  S
O258        C272   1.264       .  A
O258       Cd262   2.037       .  S
O259        C270   1.283       .  A
O259       Cd262   2.153       .  S
Zn260       O271   2.120       .  S
Zn260       O273   1.975       .  S
Zn260       O265   2.104       .  S
O261        C272   1.252       .  A
O261       Cd266   2.014       .  S
Cd262       O264   2.011       .  S
Cd262       O265   2.027       .  S
Cd263       O267   2.016       .  S
Cd263       O276   2.151       .  S
Cd263       O265   2.002       .  S
O264        C274   1.265       .  A
O265       Cd266   2.145       .  S
Cd266       O268   2.180       .  S
O267        C274   1.263       .  A
C269        O273   1.252       .  A
C270        C411   1.502       .  S
C274        C281   1.442       .  S
C275        O276   1.282       .  A
C275        C301   1.501       .  S
C277        C278   1.396       .  A
C277        C282   1.394       .  A
C277        H284   1.083       .  S
C278        C279   1.413       .  A
C279        C280   1.378       .  A
C279        F286   1.354       .  S
C280        C281   1.389       .  A
C280        H285   1.084       .  S
C281        C282   1.406       .  A
C282        F283   1.357       .  S
C287        C288   1.406       .  A
C287        C292   1.409       .  A
C287        H294   1.083       .  S
C288        C289   1.409       .  A
C289        C726   1.415       .  A
C289        F732   1.356       .  S
C290        C725   1.413       .  A
C290        C727   1.413       .  A
C290        H295   1.083       .  S
C291        C292   1.416       .  A
C291        C726   1.413       .  A
C292        F293   1.356       .  S
F296        C725   1.356       .  S
C297        C298   1.402       .  A
C297        C302   1.397       .  A
C297        H304   1.073       .  S
C298        C299   1.410       .  A
C299        C300   1.413       .  A
C299        F306   1.356       .  S
C300        C301   1.410       .  A
C300        H305   1.082       .  S
C301        C302   1.414       .  A
C302        F303   1.358       .  S
C307        C308   1.395       .  A
C307        C312   1.394       .  A
C307        H314   1.083       .  S
C308        C745   1.407       .  A
C309        C310   1.398       .  A
C309        C744   1.406       .  A
C309        F316   1.357       .  S
C310        C747   1.401       .  A
C310        H315   1.083       .  S
C311        C312   1.409       .  A
C311        C746   1.401       .  A
C312        F313   1.358       .  S
C317        C318   1.393   1_565  A
C317        C322   1.381       .  A
C317        H324   1.083       .  S
C318        C319   1.398       .  A
C319        C320   1.379       .  A
C319        F326   1.357       .  S
C320        C321   1.400   1_545  A
C320        H325   1.083       .  S
C321        C322   1.407       .  A
C322        F323   1.358       .  S
C327        C328   1.403   1_655  A
C327        C332   1.398   1_655  A
C327        H334   1.084       .  S
C328        C329   1.414       .  A
C329        C330   1.400       .  A
C329        F336   1.357       .  S
C330        C331   1.397       .  A
C330        H335   1.083       .  S
C331        C332   1.407       .  A
C332        F333   1.355   1_455  S
C337        C338   1.412   1_565  A
C337        C778   1.416       .  A
C337        H780   1.082       .  S
C338        C339   1.415       .  A
C339        C340   1.424       .  A
C339        F346   1.356       .  S
C340        C341   1.417   1_545  A
C340        H345   1.083       .  S
C341        C778   1.418       .  A
C342        C773   1.416       .  A
C342        C777   1.418   1_554  A
C342        F343   1.357       .  S
H344        C773   1.082       .  S
C347        C348   1.396       .  A
C347        C352   1.401       .  A
C347        H354   1.083       .  S
C348        C349   1.407   1_655  A
C349        C350   1.403       .  A
C349        F356   1.356       .  S
C350        C351   1.406   1_455  A
C350        H355   1.083       .  S
C351        C352   1.418       .  A
C352        F353   1.358       .  S
C357        C358   1.407       .  A
C357        C362   1.407       .  A
C357        H364   1.083       .  S
C358        C359   1.409       .  A
C359        C360   1.408       .  A
C359        F366   1.356       .  S
C360        C361   1.407       .  A
C360        H365   1.083       .  S
C361        C362   1.408       .  A
C362        F363   1.356       .  S
C367        C368   1.410       .  A
C367        C372   1.413       .  A
C367        H374   1.083       .  S
C368        C369   1.417       .  A
C369        C370   1.411       .  A
C369        F376   1.357       .  S
C370        C371   1.406       .  A
C370        H375   1.083       .  S
C371        C372   1.412       .  A
C372        F373   1.357       .  S
C377        C378   1.412       .  A
C377        C382   1.393       .  A
C377        H820   1.083       .  S
C378        C379   1.400       .  A
C379        C380   1.388       .  A
C379        F386   1.357       .  S
C380        C381   1.404       .  A
C380        H385   1.082       .  S
C381        C382   1.392       .  A
C382        F819   1.357       .  S
F383        C818   1.357       .  S
H384        C813   1.084       .  S
C387        C388   1.404       .  A
C387        C392   1.387       .  A
C387        H394   1.083       .  S
C388        C825   1.394       .  A
C389        C390   1.392       .  A
C389        C824   1.393       .  A
C389        F396   1.357       .  S
C390        C827   1.410       .  A
C390        H395   1.084       .  S
C391        C392   1.400       .  A
C391        C826   1.410       .  A
C392        F393   1.357       .  S
C397        C398   1.409       .  A
C397        C402   1.405       .  A
C397        H404   1.083   1_655  S
C398        C399   1.405       .  A
C399        C400   1.392       .  A
C399        F406   1.356       .  S
C400        C401   1.402       .  A
C400        H405   1.077       .  S
C401        C402   1.406       .  A
C402        F403   1.357       .  S
C407        C408   1.399       .  A
C407        C412   1.398       .  A
C407        H414   1.083       .  S
C408        C409   1.407       .  A
C409        C410   1.412       .  A
C409        F416   1.356       .  S
C410        C411   1.411       .  A
C410        H415   1.082       .  S
C411        C412   1.416       .  A
C412        F413   1.357       .  S
C417        C422   1.396       .  A
C417        C854   1.406       .  A
C417        H424   1.083       .  S
C418        C419   1.412       .  A
C418        C853   1.405       .  A
C419        C420   1.405       .  A
C419        F426   1.357       .  S
C420        C421   1.401       .  A
C420        H425   1.083       .  S
C421        C858   1.404       .  A
C421        N453   1.437       .  S
C422        C857   1.403       .  A
C422        F423   1.356   1_554  S
C427        C432   1.394   1_554  A
C427        C864   1.406   1_554  A
C427        H434   1.082       .  S
C428        C429   1.414       .  A
C428        C863   1.406       .  A
C429        C430   1.402       .  A
C429        F436   1.357       .  S
C430        C431   1.398       .  A
C430        H435   1.081       .  S
C431        C868   1.401       .  A
C431        N450   1.431       .  S
C432        C867   1.402       .  A
C432        F433   1.357   1_556  S
C437        C439   1.562       .  S
C437        C441   1.564       .  S
C437        C440   1.555       .  S
C437        C461   1.685       .  S
C438        C442   1.556       .  S
C438        C444   1.553       .  S
C438        C443   1.551       .  S
C438        C460   1.679       .  S
C439        C447   1.381       .  A
C440        C451   1.380       .  A
C441        C455   1.386       .  A
C442        C445   1.381       .  A
C443        C449   1.374       .  A
C444        C452   1.377       .  A
C445        H458   1.077       .  S
N446        C447   1.363   1_554  A
N446        N584   1.420   1_655  S
C447        H448   1.079       .  S
C449        H459   1.083       .  S
C449        N450   1.354       .  A
C451        H457   1.078       .  S
C452        H454   1.075       .  S
C452        N453   1.351       .  A
C455        H456   1.082       .  S
C460        C462   1.556       .  S
C460        C464   1.556       .  S
C460        C463   1.553       .  S
C461        C465   1.554       .  S
C461        C467   1.550       .  S
C461        C466   1.568       .  S
C462        C470   1.378       .  A
C462        C465   1.427       .  A
C463        C474   1.383       .  A
C463        C466   1.432       .  A
C464        C478   1.382       .  A
C464        C467   1.426       .  A
C465        C468   1.379       .  A
C466        C472   1.386       .  A
C467        C475   1.375       .  A
C468        H481   1.079       .  S
C468        N469   1.361       .  A
N469        C470   1.359       .  A
N469        N607   1.419       .  S
C470        H471   1.080       .  S
C472        H482   1.083       .  S
C472        N473   1.362       .  A
N473        C474   1.353       .  A
N473        C844   1.448       .  S
C474        H480   1.079       .  S
C475        H477   1.077       .  S
C475        N476   1.350       .  A
N476        C478   1.357       .  A
N476        C837   1.437       .  S
C478        H479   1.083       .  S
C483        C485   1.562       .  S
C483        C487   1.551       .  S
C483        C486   1.535       .  S
C483        C506   1.677       .  S
C484        C488   1.573       .  S
C484        C490   1.556       .  S
C484        C489   1.539       .  S
C484        C507   1.687       .  S
C485        C493   1.387       .  A
C486        C497   1.368       .  A
C487        C501   1.373       .  A
C488        C491   1.398       .  A
C489        C495   1.370       .  A
C490        C498   1.372       .  A
C491        H504   1.079       .  S
C491        N492   1.363       .  A
N492        N630   1.429   1_565  S
C493        H494   1.079       .  S
C495        H505   1.079       .  S
C495        N496   1.353   1_556  A
N496        C824   1.420       .  S
C497        H503   1.081       .  S
C498        H500   1.079       .  S
C498        N499   1.348       .  A
N499        C817   1.424       .  S
C501        H502   1.080       .  S
C506        C508   1.540       .  S
C506        C510   1.556       .  S
C506        C509   1.564       .  S
C507        C511   1.539       .  S
C507        C513   1.578       .  S
C507        C512   1.568       .  S
C508        C516   1.371       .  A
C508        C511   1.411       .  A
C509        C520   1.381       .  A
C509        C512   1.428       .  A
C510        C524   1.383       .  A
C510        C513   1.429       .  A
C511        C514   1.365       .  A
C512        C518   1.390       .  A
C513        C521   1.398       .  A
C514        H527   1.079       .  S
C514        N515   1.354       .  A
N515        C516   1.360       .  A
N515        N653   1.406       .  S
C516        H517   1.081       .  S
C518        H528   1.080       .  S
C518        N519   1.363       .  A
N519        C520   1.358       .  A
N519        C797   1.451       .  S
C520        H526   1.076       .  S
C521        H523   1.079       .  S
C521        N522   1.366       .  A
N522        C524   1.355       .  A
N522        C807   1.457       .  S
C524        H525   1.081       .  S
O529        C545   1.271       .  A
O529       Zn535   2.048       .  S
C530        O546   1.252       .  A
C530        C827   1.458       .  S
O531        C544   1.264       .  A
O531       Cd538   2.081       .  S
O532       Cd541   2.108   1_545  S
O533        C547   1.249       .  A
O533       Cd537   1.953   1_655  S
O534       Cd537   2.116       .  S
Zn535       O546   1.926   1_556  S
Zn535       O548   1.990       .  S
Zn535       O540   2.011   1_556  S
O536        C547   1.270       .  A
O536       Cd541   2.014       .  S
Cd537       O539   2.161       .  S
Cd538       O542   2.210   1_665  S
Cd538       O551   2.056   1_565  S
Cd538       O540   2.059   1_556  S
Cd541       O543   2.067       .  S
O542        C549   1.294   1_545  A
C544        O548   1.268       .  A
C544        C553   1.477       .  S
C545        C787   1.497       .  S
C547        C572   1.472       .  S
C549        C777   1.535       .  S
C550        O551   1.272   1_554  A
C550        C854   1.483       .  S
O552        C568   1.277   1_655  A
O552       Zn558   2.038       .  S
C553        O569   1.245       .  A
C553        O566   1.266   1_655  A
O554        C567   1.290       .  A
O554       Cd561   2.174       .  S
O555        C573   1.276       .  A
O555       Cd564   2.100   1_645  S
O556        C570   1.254       .  A
O556       Cd560   2.001       .  S
O557        C568   1.275       .  A
O557       Cd560   2.109       .  S
Zn558       O569   1.909       .  S
Zn558       O571   2.090       .  S
Zn558       O563   2.090       .  S
O559        C570   1.262   1_545  A
O559       Cd564   2.021   1_545  S
Cd560       O562   2.080       .  S
Cd560       O563   2.064   1_455  S
Cd561       O565   2.080       .  S
Cd561       O574   2.060   1_565  S
Cd561       O563   2.003       .  S
O562        C572   1.271   1_455  A
O563       Cd564   1.987   1_655  S
Cd564       O566   2.017       .  S
O565        C572   1.268       .  A
C567        O571   1.284       .  A
C567        C804   1.514       .  S
C568        C764   1.482       .  S
C570        C757   1.445       .  S
C573        O574   1.273       .  A
C573        C834   1.481       .  S
C575        C577   1.554       .  S
C575        C579   1.556       .  S
C575        C578   1.542       .  S
C575        C599   1.673       .  S
C576        C580   1.556       .  S
C576        C582   1.568       .  S
C576        C581   1.550       .  S
C576        C598   1.684       .  S
C577        C585   1.380       .  A
C578        C589   1.371       .  A
C579        C593   1.381   1_455  A
C580        C583   1.382       .  A
C581        C587   1.377       .  A
C582        C590   1.386   1_455  A
C583        H596   1.078       .  S
N584        C585   1.360   1_554  A
C585        H586   1.077       .  S
C587        H597   1.075       .  S
N588        C589   1.350   1_554  A
N588        C744   1.427       .  S
C589        H595   1.082       .  S
C590        H592   1.079       .  S
N591        C593   1.351       .  A
N591        C784   1.442       .  S
C593        H594   1.067       .  S
C598        C600   1.557   1_455  S
C598        C602   1.554       .  S
C598        C601   1.571       .  S
C599        C603   1.544   1_455  S
C599        C605   1.557       .  S
C599        C604   1.559       .  S
C600        C608   1.381       .  A
C600        C603   1.417       .  A
C601        C612   1.389       .  A
C601        C604   1.436       .  A
C602        C616   1.380       .  A
C602        C605   1.421       .  A
C603        C606   1.375       .  A
C604        C610   1.384       .  A
C605        C613   1.379       .  A
C606        H619   1.081       .  S
C606        N607   1.359       .  A
N607        C608   1.364       .  A
C608        H609   1.077       .  S
C610        H620   1.082       .  S
C610        N611   1.352       .  A
N611        C612   1.361       .  A
N611        C734   1.449       .  S
C612        H618   1.075       .  S
C613        H615   1.082       .  S
C613        N614   1.358       .  A
N614        C616   1.355       .  A
N614        C767   1.438       .  S
C616        H617   1.078       .  S
C621        C623   1.568       .  S
C621        C625   1.587       .  S
C621        C624   1.561       .  S
C621        C645   1.701       .  S
C622        C626   1.580       .  S
C622        C628   1.570       .  S
C622        C627   1.570       .  S
C622        C644   1.688       .  S
C623        C631   1.401       .  A
C624        C635   1.385       .  A
C625        C639   1.397       .  A
C626        C629   1.402       .  A
C627        C633   1.411       .  A
C628        C636   1.401       .  A
C629        H642   1.078       .  S
C629        N630   1.351       .  A
C631        H632   1.078       .  S
C633        H643   1.081       .  S
C633        N634   1.363       .  A
N634        C774   1.473       .  S
C635        H641   1.076   1_545  S
C636        H638   1.078       .  S
C636        N637   1.355       .  A
N637        C724   1.456       .  S
C639        H640   1.072       .  S
C644        C646   1.541       .  S
C644        C648   1.531       .  S
C644        C647   1.538       .  S
C645        C649   1.543       .  S
C645        C651   1.535       .  S
C645        C650   1.573       .  S
C646        C654   1.389   1_545  A
C646        C649   1.438       .  A
C647        C658   1.357       .  A
C647        C650   1.423       .  A
C648        C662   1.380       .  A
C648        C651   1.425       .  A
C649        C652   1.387   1_545  A
C650        C656   1.368       .  A
C651        C659   1.387       .  A
C652        H665   1.079       .  S
C652        N653   1.334       .  A
N653        C654   1.338       .  A
C654        H655   1.079       .  S
C656        H666   1.078       .  S
C656        N657   1.345       .  A
N657        C658   1.338       .  A
N657        C754   1.408       .  S
C658        H664   1.080   1_545  S
C659        H661   1.080       .  S
C659        N660   1.343       .  A
N660        C662   1.335       .  A
N660        C714   1.423       .  S
C662        H663   1.080       .  S
O667        C683   1.287   1_556  A
O667       Zn673   2.122       .  S
C668        O684   1.275   1_554  A
C668        C747   1.471       .  S
O669        C682   1.260       .  A
O669       Cd676   1.978       .  S
O670       Cd679   2.004       .  S
O671        C685   1.265       .  A
O671       Cd675   2.034       .  S
O672       Cd675   2.166       .  S
Zn673       O684   2.062       .  S
Zn673       O686   1.978       .  S
Zn673       O678   1.952   1_556  S
O674        C685   1.266       .  A
O674       Cd679   2.000       .  S
Cd675       O677   2.089       .  S
Cd676       O680   2.078       .  S
Cd676       O689   2.085   1_556  S
Cd676       O678   2.069   1_556  S
Cd679       O681   2.036       .  S
O680        C687   1.274   1_556  A
C682        O686   1.267       .  A
C682        C705   1.470       .  S
C683        C727   1.515       .  S
C685        C708   1.474       .  S
C687        C864   1.483   1_554  S
C688        O689   1.270   1_556  A
C688        C814   1.469       .  S
O690        C706   1.268       .  A
O690       Zn696   1.984       .  S
C691        O707   1.288       .  A
C691        O704   1.293       .  A
C691        C794   1.497       .  S
O692        C705   1.265       .  A
O692       Cd699   2.059       .  S
O693        C711   1.272       .  A
O693       Cd702   2.058       .  S
O694        C708   1.265       .  A
O694       Cd698   2.038       .  S
O695        C706   1.284       .  A
O695       Cd698   2.161       .  S
Zn696       O707   2.121       .  S
Zn696       O709   1.990       .  S
Zn696       O701   2.100       .  S
O697        C708   1.254       .  A
O697       Cd702   2.017       .  S
Cd698       O700   2.015       .  S
Cd698       O701   2.020       .  S
Cd699       O703   2.011       .  S
Cd699       O712   2.151       .  S
Cd699       O701   2.007       .  S
O700        C710   1.265       .  A
O701       Cd702   2.139       .  S
Cd702       O704   2.183       .  S
O703        C710   1.262       .  A
C705        O709   1.253       .  A
C706        C847   1.500       .  S
C710        C717   1.439       .  S
C711        O712   1.283       .  A
C711        C737   1.503       .  S
C713        C714   1.397       .  A
C713        C718   1.395       .  A
C713        H720   1.083       .  S
C714        C715   1.412       .  A
C715        C716   1.376       .  A
C715        F722   1.354       .  S
C716        C717   1.387       .  A
C716        H721   1.084       .  S
C717        C718   1.406       .  A
C718        F719   1.358       .  S
C723        C724   1.406       .  A
C723        C728   1.409       .  A
C723        H730   1.083       .  S
C724        C725   1.409   1_556  A
C726        H731   1.083       .  S
C727        C728   1.415   1_554  A
C728        F729   1.356       .  S
C733        C734   1.400       .  A
C733        C738   1.397       .  A
C733        H740   1.079       .  S
C734        C735   1.409       .  A
C735        C736   1.413       .  A
C735        F742   1.356       .  S
C736        C737   1.412       .  A
C736        H741   1.082       .  S
C737        C738   1.416       .  A
C738        F739   1.358       .  S
C743        C744   1.395   1_556  A
C743        C748   1.395       .  A
C743        H750   1.083       .  S
C745        C746   1.398       .  A
C745        F752   1.356       .  S
C746        H751   1.083       .  S
C747        C748   1.410   1_554  A
C748        F749   1.358       .  S
C753        C754   1.396   1_565  A
C753        C758   1.383       .  A
C753        H760   1.083       .  S
C754        C755   1.399       .  A
C755        C756   1.378       .  A
C755        F762   1.357       .  S
C756        C757   1.399   1_545  A
C756        H761   1.084       .  S
C757        C758   1.406       .  A
C758        F759   1.358       .  S
C763        C764   1.402   1_655  A
C763        C768   1.395   1_655  A
C763        H770   1.083       .  S
C764        C765   1.412       .  A
C765        C766   1.404       .  A
C765        F772   1.357       .  S
C766        C767   1.401       .  A
C766        H771   1.083       .  S
C767        C768   1.406       .  A
C768        F769   1.354   1_455  S
C773        C774   1.411   1_564  A
C774        C775   1.414       .  A
C775        C776   1.423       .  A
C775        F782   1.356       .  S
C776        C777   1.417   1_545  A
C776        H781   1.083       .  S
C778        F779   1.357       .  S
C783        C784   1.398       .  A
C783        C788   1.404       .  A
C783        H790   1.082       .  S
C784        C785   1.407   1_655  A
C785        C786   1.404       .  A
C785        F792   1.356   1_556  S
C786        C787   1.406   1_455  A
C786        H791   1.082   1_556  S
C787        C788   1.418       .  A
C788        F789   1.358       .  S
C793        C794   1.408       .  A
C793        C798   1.407       .  A
C793        H800   1.083       .  S
C794        C795   1.410       .  A
C795        C796   1.409       .  A
C795        F802   1.356       .  S
C796        C797   1.407       .  A
C796        H801   1.083       .  S
C797        C798   1.407       .  A
C798        F799   1.356       .  S
C803        C804   1.410       .  A
C803        C808   1.411       .  A
C803        H810   1.083       .  S
C804        C805   1.418       .  A
C805        C806   1.411       .  A
C805        F812   1.357       .  S
C806        C807   1.406       .  A
C806        H811   1.083       .  S
C807        C808   1.410       .  A
C808        F809   1.356       .  S
C813        C814   1.413       .  A
C813        C818   1.394       .  A
C814        C815   1.401   1_556  A
C815        C816   1.390       .  A
C815        F822   1.357       .  S
C816        C817   1.404   1_554  A
C816        H821   1.083       .  S
C817        C818   1.393       .  A
C823        C824   1.404       .  A
C823        C828   1.387       .  A
C823        H830   1.083   1_554  S
C825        C826   1.393       .  A
C825        F832   1.357       .  S
C826        H831   1.083       .  S
C827        C828   1.399       .  A
C828        F829   1.357       .  S
C833        C834   1.408       .  A
C833        C838   1.404       .  A
C833        H840   1.083   1_655  S
C834        C835   1.408       .  A
C835        C836   1.393       .  A
C835        F842   1.357       .  S
C836        C837   1.402       .  A
C836        H841   1.078       .  S
C837        C838   1.404       .  A
C838        F839   1.357       .  S
C843        C844   1.398       .  A
C843        C848   1.392       .  A
C843        H850   1.080       .  S
C844        C845   1.412       .  A
C845        C846   1.415       .  A
C845        F852   1.357       .  S
C846        C847   1.410       .  A
C846        H851   1.082       .  S
C847        C848   1.417       .  A
C848        F849   1.358       .  S
C853        C858   1.397       .  A
C853        H860   1.083       .  S
C854        C855   1.411       .  A
C855        C856   1.403       .  A
C855        F862   1.357       .  S
C856        C857   1.401       .  A
C856        H861   1.083       .  S
C858        F859   1.356       .  S
C863        C868   1.395       .  A
C863        H870   1.081       .  S
C864        C865   1.413       .  A
C865        C866   1.401       .  A
C865        F872   1.357       .  S
C866        C867   1.398       .  A
C866        H871   1.083       .  S
C868        F869   1.357       .  S
