geometry optimzed in LAMMPS
_audit_creation_date              2020-11-30 
_audit_creation_method            'lammps2cif' 
_symmetry_space_group_name_H-M    'P1' 
_symmetry_Int_Tables_number       1 
_symmetry_cell_setting            triclinic 
loop_ 
_symmetry_equiv_pos_as_xyz 
  x,y,z 
_cell_length_a                    26.712946349501077 
_cell_length_b                    33.20819659418016 
_cell_length_c                    44.28890076807784 
_cell_angle_alpha                 90.0480790738333 
_cell_angle_beta                  90.08551768082002 
_cell_angle_gamma                 89.94826907893176 
loop_ 
_atom_site_label 
_atom_site_type_symbol 
_atom_site_fract_x 
_atom_site_fract_y 
_atom_site_fract_z 
_atom_site_charge 
O1          O  0.99832114  0.06031310  0.02702909    -0.73320
O2          O  0.50026988  0.93960656  0.02617043    -0.74300
O3          O  0.07348673  0.00036251  0.02681116    -0.62920
O4          O  0.42464906  0.99953404  0.02651829    -0.71330
O5          O  0.42445454  0.00093959  0.47633163    -0.70880
O6          O  0.07331208  0.00031588  0.47660761    -0.62130
O7          O  0.49864085  0.94018917  0.47605971    -0.74640
O8          O  0.99909006  0.06112527  0.47703348    -0.73420
Cu9        Cu  0.99913200  0.99993828  0.02838776     1.04560
Cu10       Cu  0.49887612  0.00066883  0.47473553     1.04330
C11         C  0.99827182  0.07992566  0.00223954     0.92880
C12         C  0.50017063  0.92085344  0.50098336     0.92020
C13         C  0.09678852  0.00018183  0.00171055     0.84160
C14         C  0.40113918  0.00032938  0.00142957     0.90440
O15         O  0.00251915  0.05997449  0.27571018    -0.73320
O16         O  0.00288525  0.93874936  0.27455022    -0.74300
O17         O  0.07732115  0.99944737  0.27536098    -0.62920
O18         O  0.42856706  0.99939152  0.27538011    -0.71330
O19         O  0.42851780  0.00067895  0.22518826    -0.70880
O20         O  0.07746049  0.99955556  0.22516282    -0.62130
O21         O  0.00226546  0.93982703  0.22458554    -0.74640
O22         O  0.00398229  0.06035580  0.22558302    -0.73420
Cu23       Cu  0.00286356  0.99935268  0.27703311     1.04560
Cu24       Cu  0.00304096  0.00012240  0.22338609     1.04330
C25         C  0.00360195  0.07919201  0.25071845     0.92880
C26         C  0.00207706  0.92004101  0.24927890     0.92020
C27         C  0.10079944  0.99952247  0.25030730     0.84160
C28         C  0.40514858  0.00013268  0.25029146     0.90440
O29         O  0.24748011  0.06078506  0.47687084    -0.73320
O30         O  0.24883700  0.93989665  0.47616791    -0.74300
O31         O  0.17425552  0.00002121  0.47652180    -0.62920
O32         O  0.32309257  0.00072333  0.47642684    -0.71330
O33         O  0.32359749  0.00029048  0.02663428    -0.70880
O34         O  0.17473870  0.99954412  0.02673447    -0.62130
O35         O  0.25022330  0.93950775  0.02631342    -0.74640
O36         O  0.24870588  0.06029671  0.02706382    -0.73420
Cu37       Cu  0.24847363  0.00036960  0.47471940     1.04560
Cu38       Cu  0.24929490  0.99988725  0.02845696     1.04330
C39         C  0.24758737  0.07946207  0.00209066     0.92880
C40         C  0.24957727  0.92069091  0.00114632     0.92020
C41         C  0.15111491  0.99986676  0.00167156     0.84160
C42         C  0.34675311  0.00048616  0.00148201     0.90440
O43         O  0.25418582  0.93995180  0.27585975    -0.73320
O44         O  0.25165126  0.06053437  0.27535802    -0.74300
O45         O  0.17853616  0.99942034  0.27555544    -0.62920
O46         O  0.32747505  0.00095113  0.27545296    -0.71330
O47         O  0.32738025  0.99959068  0.22524619    -0.70880
O48         O  0.17862352  0.00010516  0.22534624    -0.62130
O49         O  0.25365930  0.06026393  0.22519228    -0.74640
O50         O  0.25280270  0.93945409  0.22565076    -0.73420
Cu51       Cu  0.25298474  0.00024002  0.27733551     1.04560
Cu52       Cu  0.25308316  0.99984440  0.22358083     1.04330
C53         C  0.25367839  0.92082474  0.25085751     0.92880
C54         C  0.25272185  0.07934695  0.25023796     0.92020
C55         C  0.15517581  0.99966544  0.25041263     0.84160
C56         C  0.35081265  0.00026430  0.25033600     0.90440
O57         O  0.04334264  0.66827405  0.04480118    -0.73320
O58         O  0.04156319  0.66587231  0.45463813    -0.74300
O59         O  0.04267443  0.72776731  0.49898227    -0.62920
O60         O  0.04106802  0.60665790  0.50034164    -0.71330
O61         O  0.45825439  0.60771931  0.50088596    -0.70880
O62         O  0.45964744  0.72793695  0.49899674    -0.62130
O63         O  0.45856733  0.66649597  0.45476664    -0.74640
O64         O  0.46048993  0.66912799  0.04543723    -0.73420
Cu65       Cu  0.04506690  0.66714410  0.49969045     1.04560
Cu66       Cu  0.45635684  0.66786753  0.50007721     1.04330
C67         C  0.50235907  0.66915470  0.05951997     0.92880
C68         C  0.50002418  0.66538938  0.44039739     0.92020
C69         C  0.50112303  0.74692916  0.49851628     0.84160
C70         C  0.49920064  0.58795388  0.50048578     0.90440
O71         O  0.45836797  0.66604537  0.20505621    -0.73320
O72         O  0.45695061  0.66733031  0.29511129    -0.74300
O73         O  0.45824779  0.72710710  0.24961028    -0.62920
O74         O  0.45785838  0.60612340  0.25058187    -0.71330
O75         O  0.04081397  0.60586643  0.24983741    -0.70880
O76         O  0.04135619  0.72657640  0.25157701    -0.62130
O77         O  0.03988931  0.66530614  0.29594093    -0.74640
O78         O  0.04120134  0.66711527  0.20508562    -0.73420
Cu79       Cu  0.45500762  0.66664812  0.25005577     1.04560
Cu80       Cu  0.04377648  0.66621132  0.25060058     1.04330
C81         C  0.99965879  0.66638639  0.19065093     0.92880
C82         C  0.99798431  0.66656710  0.30985470     0.92020
C83         C  0.99996973  0.74580884  0.25087922     0.84160
C84         C  0.99927996  0.58683982  0.25040486     0.90440
O85         O  0.20715327  0.66885150  0.45846216    -0.73320
O86         O  0.20896596  0.66670475  0.04882058    -0.74300
O87         O  0.20999826  0.72831152  0.00418981    -0.62920
O88         O  0.20671056  0.60750270  0.00280874    -0.71330
O89         O  0.28962831  0.60616696  0.00311170    -0.70880
O90         O  0.29294564  0.72682944  0.00336869    -0.62130
O91         O  0.29203488  0.66652061  0.04868243    -0.74640
O92         O  0.29004159  0.66656703  0.45777046    -0.73420
Cu93       Cu  0.20535013  0.66792048  0.00362357     1.04560
Cu94       Cu  0.29409666  0.66647229  0.00322215     1.04330
C95         C  0.24816706  0.66802001  0.44374375     0.92880
C96         C  0.25056183  0.66612150  0.06304661     0.92020
C97         C  0.25202812  0.74670670  0.00388098     0.84160
C98         C  0.24769094  0.58766918  0.00261149     0.90440
O99         O  0.29120896  0.66627752  0.29851098    -0.73320
O100        O  0.29211345  0.66806340  0.20810242    -0.74300
O101        O  0.29102139  0.72770961  0.25368472    -0.62920
O102        O  0.29131038  0.60661424  0.25289822    -0.71330
O103        O  0.20853217  0.60681055  0.25308870    -0.70880
O104        O  0.20836373  0.72697349  0.25278329    -0.62130
O105        O  0.20909293  0.66664083  0.20753749    -0.74640
O106        O  0.20826948  0.66693458  0.29842409    -0.73420
Cu107      Cu  0.29431314  0.66716633  0.25332029     1.04560
Cu108      Cu  0.20569739  0.66685957  0.25295562     1.04330
C109        C  0.24978713  0.66603073  0.31283245     0.92880
C110        C  0.25087050  0.66779164  0.19351795     0.92020
C111        C  0.24931949  0.74667927  0.25300831     0.84160
C112        C  0.24976881  0.58744648  0.25318006     0.90440
O113        O  0.46031532  0.33385637  0.04602315    -0.73320
O114        O  0.45875565  0.33322667  0.45553445    -0.74300
O115        O  0.45882708  0.27321908  0.50116557    -0.62920
O116        O  0.46066301  0.39416770  0.50060000    -0.71330
O117        O  0.04345745  0.39312380  0.50003675    -0.70880
O118        O  0.04196628  0.27266684  0.49992402    -0.62130
O119        O  0.04157834  0.33274490  0.45484772    -0.74640
O120        O  0.04336491  0.33325952  0.04542514    -0.73420
Cu121      Cu  0.45671729  0.33366233  0.50083012     1.04560
Cu122      Cu  0.04546538  0.33291485  0.00005799     1.04330
C123        C  0.00214385  0.33384802  0.06002475     0.92880
C124        C  0.99976778  0.33268774  0.44076559     0.92020
C125        C  0.00023969  0.25398256  0.50041215     0.84160
C126        C  0.00249819  0.41289856  0.50044716     0.90440
O127        O  0.04257277  0.33191595  0.20432370    -0.73320
O128        O  0.04494238  0.33255562  0.29476202    -0.74300
O129        O  0.04236113  0.27183007  0.24977427    -0.62920
O130        O  0.04525387  0.39262896  0.24921727    -0.71330
O131        O  0.46229883  0.39374656  0.24983852    -0.70880
O132        O  0.45943482  0.27293519  0.25121861    -0.62130
O133        O  0.46213094  0.33416492  0.29559044    -0.74640
O134        O  0.45952413  0.33208298  0.20512018    -0.73420
Cu135      Cu  0.04667072  0.33218628  0.24948650     1.04560
Cu136      Cu  0.45794592  0.33331327  0.25043569     1.04330
C137        C  0.00063341  0.33152831  0.19043448     0.92880
C138        C  0.00400068  0.33356885  0.30958921     0.92020
C139        C  0.00051182  0.25324982  0.25088364     0.84160
C140        C  0.00419061  0.41234282  0.24937829     0.90440
O141        O  0.29049328  0.33345141  0.45679095    -0.73320
O142        O  0.29101871  0.33318207  0.04752832    -0.74300
O143        O  0.29091588  0.27329268  0.00201713    -0.62920
O144        O  0.29165499  0.39346886  0.00231820    -0.71330
O145        O  0.20874936  0.39413732  0.00198486    -0.70880
O146        O  0.20817226  0.27271145  0.00243481    -0.62130
O147        O  0.20810889  0.33355230  0.04730162    -0.74640
O148        O  0.20756340  0.33296175  0.45711203    -0.73420
Cu149      Cu  0.29387813  0.33335890  0.00214394     1.04560
Cu150      Cu  0.20523513  0.33340131  0.00220006     1.04330
C151        C  0.24876421  0.33280657  0.44259725     0.92880
C152        C  0.24941093  0.33297994  0.06178658     0.92020
C153        C  0.24988279  0.25370907  0.00244275     0.84160
C154        C  0.25052885  0.41299330  0.00234100     0.90440
O155        O  0.21103297  0.33319914  0.29756514    -0.73320
O156        O  0.21149339  0.33386574  0.20685772    -0.74300
O157        O  0.20923769  0.27328939  0.25198418    -0.62920
O158        O  0.21288578  0.39376742  0.25246888    -0.71330
O159        O  0.29565660  0.39236693  0.25274903    -0.70880
O160        O  0.29210431  0.27165451  0.25197483    -0.62130
O161        O  0.29439996  0.33265298  0.20720858    -0.74640
O162        O  0.29396484  0.33173506  0.29747464    -0.73420
Cu163      Cu  0.20824758  0.33356832  0.25220775     1.04560
Cu164      Cu  0.29688816  0.33200144  0.25235876     1.04330
C165        C  0.25264259  0.33274078  0.31186925     0.92880
C166        C  0.25315571  0.33372842  0.19266467     0.92020
C167        C  0.25004807  0.25328321  0.25203534     0.84160
C168        C  0.25479193  0.41232807  0.25262005     0.90440
C169        C  0.21385734  0.31297823  0.36041876    -0.20680
C170        C  0.25269547  0.33300287  0.34531141    -0.07250
C171        C  0.28994298  0.35312735  0.36239742     0.13620
C172        C  0.28727929  0.35247901  0.39401443    -0.20730
C173        C  0.24849280  0.33243655  0.40914390    -0.07250
C174        C  0.21117283  0.31234037  0.39205835     0.13610
C175        C  0.16930969  0.28904086  0.40677247    -0.24080
H176        H  0.18570076  0.29719451  0.34733456     0.14900
H177        H  0.31546336  0.36827383  0.40706694     0.14930
C178        C  0.33172310  0.37650313  0.34768276    -0.24030
H179        H  0.14548190  0.27342320  0.38985065     0.05140
H180        H  0.14466224  0.30972965  0.41963719     0.08360
H181        H  0.18507251  0.26586259  0.42215924     0.08360
H182        H  0.31587422  0.39959835  0.33225771     0.08350
H183        H  0.35647523  0.35584375  0.33486623     0.08350
H184        H  0.35545279  0.39222619  0.36459840     0.05120
C185        C  0.28920063  0.35147166  0.11042608    -0.20680
C186        C  0.24935109  0.33268608  0.09527361    -0.07250
C187        C  0.21096145  0.31410672  0.11238758     0.13620
C188        C  0.21341572  0.31526869  0.14402468    -0.20730
C189        C  0.25325564  0.33406149  0.15917715    -0.07250
C190        C  0.29158902  0.35269384  0.14206687     0.13610
C191        C  0.33393332  0.37556521  0.15671896    -0.24080
H192        H  0.31835643  0.36599693  0.09737575     0.14900
H193        H  0.18422658  0.30079318  0.15707709     0.14930
C194        C  0.16826324  0.29159134  0.09775565    -0.24030
H195        H  0.35857860  0.39012238  0.13975480     0.05140
H196        H  0.35767945  0.35499117  0.17024570     0.08360
H197        H  0.31846000  0.39956628  0.17144121     0.08360
H198        H  0.18321393  0.26769439  0.08270042     0.08350
H199        H  0.14447894  0.31253047  0.08456522     0.08350
H200        H  0.14373403  0.27693683  0.11473492     0.05120
C201        C  0.04240482  0.34662854  0.39215247    -0.20680
C202        C  0.99952217  0.33256746  0.40717269    -0.07250
C203        C  0.45844350  0.31853478  0.38978519     0.13620
C204        C  0.46154253  0.31923195  0.35816373    -0.20730
C205        C  0.00436386  0.33342161  0.34315939    -0.07250
C206        C  0.04550756  0.34730322  0.36053226     0.13610
C207        C  0.09240718  0.36391153  0.34625732    -0.24080
H208        H  0.07376297  0.35772767  0.40528295     0.14900
H209        H  0.43021972  0.30809781  0.34501074     0.14930
C210        C  0.41159899  0.30177843  0.40402794    -0.24030
H211        H  0.11944351  0.37504205  0.36342182     0.05140
H212        H  0.08278981  0.38953219  0.33122666     0.08360
H213        H  0.11163333  0.34001898  0.33314921     0.08360
H214        H  0.39218635  0.32562138  0.41708711     0.08350
H215        H  0.42133420  0.27621025  0.41908368     0.08350
H216        H  0.38467113  0.29051918  0.38684616     0.05120
C217        C  0.46867669  0.30848005  0.10849520    -0.20680
C218        C  0.00247037  0.33375187  0.09339004    -0.07250
C219        C  0.03511313  0.35850226  0.11037517     0.13620
C220        C  0.03392199  0.35659368  0.14199012    -0.20730
C221        C  0.00011709  0.33139520  0.15709665    -0.07250
C222        C  0.46721281  0.30678790  0.14015557     0.13610
C223        C  0.43223363  0.27735044  0.15516967    -0.24080
H224        H  0.44381957  0.28944233  0.09539981     0.14900
H225        H  0.05870802  0.37571313  0.15507052     0.14930
C226        C  0.06888152  0.38885823  0.09548401    -0.24030
H227        H  0.41132643  0.25904877  0.13836203     0.05140
H228        H  0.40429719  0.29355527  0.16910099     0.08360
H229        H  0.45397066  0.25644051  0.16971919     0.08360
H230        H  0.04573692  0.40982072  0.08184831     0.08350
H231        H  0.09662789  0.37366057  0.08079553     0.08350
H232        H  0.08999425  0.40697382  0.11231091     0.05120
C233        C  0.21111105  0.47717316  0.26164088    -0.20680
C234        C  0.25517682  0.45716500  0.25292179    -0.07250
C235        C  0.29737314  0.48043825  0.24441657     0.13620
C236        C  0.29397481  0.52260857  0.24474312    -0.20730
C237        C  0.24985925  0.54260855  0.25335823    -0.07250
C238        C  0.20772525  0.51931702  0.26205380     0.13610
C239        C  0.15915200  0.53805298  0.27239216    -0.24080
H240        H  0.17882939  0.45966121  0.26845509     0.14900
H241        H  0.32615996  0.54013450  0.23781564     0.14930
C242        C  0.34594189  0.46159023  0.23432228    -0.24030
H243        H  0.13144481  0.51501455  0.27951464     0.05140
H244        H  0.14187835  0.55535230  0.25365933     0.08360
H245        H  0.16609921  0.55811308  0.29202433     0.08360
H246        H  0.33922097  0.44174152  0.21458803     0.08350
H247        H  0.36258718  0.44396901  0.25307905     0.08350
H248        H  0.37390823  0.48456364  0.22747719     0.05120
C249        C  0.28648495  0.52254239  0.01669280    -0.20680
C250        C  0.24717707  0.54299163  0.00222667    -0.07250
C251        C  0.20950516  0.52040046  0.98736099     0.13620
C252        C  0.21213295  0.47816837  0.98765907    -0.20730
C253        C  0.25108238  0.45770353  0.00245020    -0.07250
C254        C  0.28907655  0.48034045  0.01703427     0.13610
C255        C  0.33184258  0.46059723  0.03371961    -0.24080
H256        H  0.31523709  0.53977059  0.02817894     0.14900
H257        H  0.18387674  0.46093499  0.47577332     0.14930
C258        C  0.16736080  0.54029106  0.47022575    -0.24030
H259        H  0.35626471  0.48307530  0.04506083     0.05140
H260        H  0.35569751  0.44351540  0.51771627     0.08360
H261        H  0.31702027  0.44002738  0.05132138     0.08360
H262        H  0.18284010  0.56060577  0.45266435     0.08350
H263        H  0.14339779  0.55776595  0.98590307     0.08350
H264        H  0.14295010  0.51787828  0.45880558     0.05120
C265        C  0.28442235  0.64578999  0.39499348    -0.20680
C266        C  0.24739114  0.66786660  0.41024225    -0.07250
C267        C  0.21077718  0.68889607  0.39321931     0.13620
C268        C  0.21242847  0.68725882  0.36154582    -0.20730
C269        C  0.24973069  0.66547548  0.34631660    -0.07250
C270        C  0.28579089  0.64386445  0.36333233     0.13610
C271        C  0.32423053  0.61701710  0.34851738    -0.24080
H272        H  0.31197659  0.62919237  0.40799403     0.14900
H273        H  0.18482507  0.70377288  0.34852359     0.14930
C274        C  0.17111400  0.71455283  0.40802728    -0.24030
H275        H  0.34707276  0.60046872  0.36542916     0.05140
H276        H  0.35037726  0.63500169  0.33463885     0.08360
H277        H  0.30517200  0.59443106  0.33401195     0.08360
H278        H  0.18903617  0.73748877  0.42274905     0.08350
H279        H  0.14558710  0.69559783  0.42164801     0.08350
H280        H  0.14776028  0.73064599  0.39112216     0.05120
C281        C  0.28180079  0.69274832  0.11181937    -0.20680
C282        C  0.25065588  0.66561829  0.09640527    -0.07250
C283        C  0.21991942  0.63903181  0.11305802     0.13620
C284        C  0.22043280  0.64085108  0.14472471    -0.20730
C285        C  0.25143350  0.66805652  0.16015351    -0.07250
C286        C  0.28224802  0.69461833  0.14350633     0.13610
C287        C  0.31361294  0.72636843  0.15888881    -0.24080
H288        H  0.30500536  0.71326317  0.09894546     0.14900
H289        H  0.19718148  0.62034993  0.15757873     0.14930
C290        C  0.18835874  0.60741149  0.09767800    -0.24030
H291        H  0.33315902  0.74585793  0.14229762     0.05140
H292        H  0.34258402  0.71220352  0.17332476     0.08360
H293        H  0.28931336  0.74588744  0.17303255     0.08360
H294        H  0.21247008  0.58798709  0.08334436     0.08350
H295        H  0.15921558  0.62172568  0.08345317     0.08350
H296        H  0.16899438  0.58780160  0.11426595     0.05120
C297        C  0.46756928  0.47702668  0.26636851    -0.20680
C298        C  0.00461435  0.45699937  0.24963268    -0.07250
C299        C  0.04021124  0.47996666  0.23341983     0.13620
C300        C  0.03718582  0.52218629  0.23410696    -0.20730
C301        C  0.99966807  0.54218846  0.25051449    -0.07250
C302        C  0.46455047  0.51921615  0.26707730     0.13610
C303        C  0.42488256  0.53872528  0.28641291    -0.24080
H304        H  0.44106046  0.45946101  0.27934557     0.14900
H305        H  0.06403786  0.53976676  0.22138607     0.14930
C306        C  0.08054468  0.46043544  0.21461744    -0.24030
H307        H  0.40261672  0.51607511  0.29902863     0.05140
H308        H  0.39842129  0.55601068  0.27210686     0.08360
H309        H  0.44267874  0.55916212  0.30313295     0.08360
H310        H  0.06335890  0.43994766  0.19770280     0.08350
H311        H  0.10651385  0.44322813  0.22932526     0.08350
H312        H  0.10321811  0.48307478  0.20225710     0.05120
C313        C  0.04151140  0.52285103  0.01058577    -0.20680
C314        C  0.49860860  0.54316371  0.50037119    -0.07250
C315        C  0.45725224  0.52025788  0.48986202     0.13620
C316        C  0.46004681  0.47804886  0.49026872    -0.20730
C317        C  0.00301145  0.45772589  0.50047646    -0.07250
C318        C  0.04459306  0.48068614  0.01058132     0.13610
C319        C  0.09227947  0.46151467  0.02185828    -0.24080
H320        H  0.07301855  0.54015589  0.01890381     0.14900
H321        H  0.42842882  0.46074048  0.48208650     0.14930
C322        C  0.41043543  0.53957803  0.47737345    -0.24030
H323        H  0.11981423  0.48425162  0.02979066     0.05140
H324        H  0.11022226  0.44419539  0.50341495     0.08360
H325        H  0.08409899  0.44125127  0.04104817     0.08360
H326        H  0.42017612  0.55971135  0.45825728     0.08350
H327        H  0.39116210  0.55697895  0.99531061     0.08350
H328        H  0.38336106  0.51685750  0.46884766     0.05120
C329        C  0.46275748  0.68654724  0.39180325    -0.20680
C330        C  0.99976331  0.66445555  0.40702912    -0.07250
C331        C  0.03538608  0.64230121  0.39014646     0.13620
C332        C  0.03386277  0.64396289  0.35851303    -0.20730
C333        C  0.99716827  0.66641029  0.34325749    -0.07250
C334        C  0.46093331  0.68794098  0.36017362     0.13610
C335        C  0.42140196  0.71375789  0.34534290    -0.24080
H336        H  0.43554881  0.70348790  0.40479764     0.14900
H337        H  0.06108203  0.62699664  0.34554819     0.14930
C338        C  0.07363541  0.61537874  0.40509958    -0.24030
H339        H  0.39828998  0.73007733  0.36222536     0.05140
H340        H  0.39566385  0.69494948  0.33172397     0.08360
H341        H  0.43926831  0.73648866  0.33056275     0.08360
H342        H  0.05446905  0.59326136  0.41989996     0.08350
H343        H  0.10025673  0.63345972  0.41867990     0.08350
H344        H  0.09596818  0.59827263  0.38827189     0.05120
C345        C  0.46148278  0.65274291  0.10812430    -0.20680
C346        C  0.00292629  0.66914398  0.09307105    -0.07250
C347        C  0.04332177  0.68464306  0.11035801     0.13620
C348        C  0.04102967  0.68296460  0.14201540    -0.20730
C349        C  0.99950812  0.66657401  0.15707116    -0.07250
C350        C  0.45919809  0.65098230  0.13972940     0.13610
C351        C  0.41425395  0.63108201  0.15396757    -0.24080
H352        H  0.43074057  0.64053194  0.09500077     0.14900
H353        H  0.07178530  0.69513640  0.15514516     0.14930
C354        C  0.08826919  0.70428610  0.09594699    -0.24030
H355        H  0.38822019  0.61858614  0.13676948     0.05140
H356        H  0.39273054  0.65324486  0.16742007     0.08360
H357        H  0.42659884  0.60584440  0.16863739     0.08360
H358        H  0.07596986  0.72957013  0.08130462     0.08350
H359        H  0.10941247  0.68200264  0.08237488     0.08550
H360        H  0.11456592  0.71662023  0.11306494     0.05120
C361        C  0.21191800  0.14357149  0.26366363    -0.20680
C362        C  0.25239525  0.12361506  0.25027164    -0.07250
C363        C  0.29205488  0.14605965  0.23778289     0.13620
C364        C  0.29006622  0.18822959  0.23879475    -0.20730
C365        C  0.24914154  0.20858518  0.25172036    -0.07250
C366        C  0.20938623  0.18578939  0.26435886     0.13610
C367        C  0.16479078  0.20529226  0.27931193    -0.24080
H368        H  0.18183156  0.12590901  0.27335627     0.14900
H369        H  0.32065502  0.20540480  0.22921353     0.14930
C370        C  0.33718770  0.12561901  0.22423713    -0.24030
H371        H  0.13911467  0.18263282  0.28929748     0.05140
H372        H  0.14286909  0.22264879  0.26245857     0.08360
H373        H  0.17751125  0.22552455  0.29776562     0.08360
H374        H  0.32573358  0.10716824  0.20450570     0.08350
H375        H  0.35518580  0.10591241  0.24135799     0.08350
H376        H  0.36551922  0.14775566  0.21644196     0.05120
C377        C  0.29515246  0.81203679  0.25404987    -0.20680
C378        C  0.24892071  0.79164297  0.25235082    -0.07250
C379        C  0.20415967  0.81482176  0.24981438     0.13620
C380        C  0.20721581  0.85699542  0.24927864    -0.20730
C381        C  0.25326928  0.87668752  0.25115633    -0.07250
C382        C  0.29776732  0.85422328  0.25351631     0.13610
C383        C  0.34793470  0.87484923  0.25530482    -0.24080
H384        H  0.32965196  0.79501517  0.25586261     0.14900
H385        H  0.17334900  0.87489206  0.24746812     0.14930
C386        C  0.15284837  0.79609429  0.24755837    -0.24030
H387        H  0.37920013  0.85284896  0.25673014     0.05140
H388        H  0.34941874  0.89440817  0.27562713     0.08360
H389        H  0.35360815  0.89367202  0.23489892     0.08360
H390        H  0.14516969  0.77811200  0.26811078     0.08350
H391        H  0.15049242  0.77674519  0.22715580     0.08350
H392        H  0.12282651  0.81913800  0.24569561     0.05120
C393        C  0.20618483  0.18817104  0.49501199    -0.20680
C394        C  0.25044277  0.20881669  0.00274968    -0.07250
C395        C  0.29359155  0.18600110  0.01080326     0.13620
C396        C  0.29109494  0.14378197  0.01066103    -0.20730
C397        C  0.24724154  0.12369315  0.00240812    -0.07250
C398        C  0.20418004  0.14591938  0.49467305     0.13610
C399        C  0.15591523  0.12505636  0.48660493    -0.24080
H400        H  0.17294353  0.20509488  0.48895479     0.14900
H401        H  0.32383324  0.12617532  0.01670538     0.14930
C402        C  0.34237423  0.20526767  0.02006600    -0.24030
H403        H  0.12580707  0.14704454  0.48147791     0.05140
H404        H  0.14340850  0.10601810  0.00576740     0.08360
H405        H  0.16143174  0.10581079  0.46638103     0.08360
H406        H  0.33631034  0.22561885  0.03962481     0.08350
H407        H  0.35859726  0.22222158  0.50084017     0.08350
H408        H  0.37041635  0.18243136  0.02699469     0.05120
C409        C  0.28748687  0.85641465  0.01765549    -0.20680
C410        C  0.25015207  0.87629713  0.00110513    -0.07250
C411        C  0.21355879  0.85359466  0.98561022     0.13620
C412        C  0.21500095  0.81142289  0.98728217    -0.20730
C413        C  0.25285391  0.79131570  0.00339699    -0.07250
C414        C  0.28982517  0.81418737  0.01870254     0.13610
C415        C  0.33088953  0.79459239  0.03694034    -0.24080
H416        H  0.31533461  0.87411870  0.02956027     0.14900
H417        H  0.18673453  0.79398840  0.97552140     0.14930
C418        C  0.17227592  0.87368589  0.96790355    -0.24030
H419        H  0.35454170  0.81722966  0.04868706     0.05140
H420        H  0.35582539  0.77687899  0.52195356     0.08360
H421        H  0.31434613  0.77457323  0.05433672     0.08360
H422        H  0.18839808  0.89070626  0.44869523     0.08350
H423        H  0.15125493  0.89470525  0.98268084     0.08350
H424        H  0.14534810  0.85142200  0.45857607     0.05120
C425        C  0.46737718  0.14388910  0.26784220    -0.20680
C426        C  0.00376228  0.12360942  0.25084401    -0.07250
C427        C  0.03934912  0.14597639  0.23430518     0.13620
C428        C  0.03728471  0.18816650  0.23495318    -0.20730
C429        C  0.00012415  0.20863656  0.25132019    -0.07250
C430        C  0.46469152  0.18613573  0.26809546     0.13610
C431        C  0.42485419  0.20619893  0.28696659    -0.24080
H432        H  0.44034754  0.12648827  0.28058006     0.14900
H433        H  0.06463857  0.20531778  0.22228514     0.14930
C434        C  0.08050212  0.12558569  0.21670841    -0.24030
H435        H  0.40253046  0.18390357  0.29989524     0.05140
H436        H  0.39848469  0.22298479  0.27223426     0.08360
H437        H  0.44247103  0.22714132  0.30340416     0.08360
H438        H  0.06427439  0.10731702  0.19814136     0.08350
H439        H  0.10264816  0.10583332  0.23192854     0.08350
H440        H  0.10651980  0.14775926  0.20644384     0.05120
C441        C  0.48083358  0.81041293  0.22598809    -0.20680
C442        C  0.00038147  0.79010974  0.25102432    -0.07250
C443        C  0.02009489  0.81225203  0.27546995     0.13620
C444        C  0.02007768  0.85448131  0.27416258    -0.20730
C445        C  0.00128535  0.87521412  0.24885644    -0.07250
C446        C  0.48148529  0.85262931  0.22431567     0.13610
C447        C  0.46014485  0.87231909  0.19644428    -0.24080
H448        H  0.46569035  0.79298667  0.20738165     0.14900
H449        H  0.03518207  0.87137830  0.29302924     0.14930
C450        C  0.03971314  0.79145873  0.30332948    -0.24030
H451        H  0.44397671  0.84989050  0.18057470     0.05140
H452        H  0.49010331  0.88858978  0.18414711     0.08360
H453        H  0.42985633  0.89357080  0.20279916     0.08360
H454        H  0.07144516  0.77143864  0.29745131     0.08350
H455        H  0.00958096  0.77313417  0.31361432     0.08350
H456        H  0.05304261  0.81334979  0.32051846     0.05120
C457        C  0.01980009  0.14500186  0.47793098    -0.20680
C458        C  0.99794651  0.12467493  0.50244664    -0.07250
C459        C  0.47595954  0.14754579  0.02606948     0.13620
C460        C  0.47698946  0.18976787  0.02455567    -0.20730
C461        C  0.99985551  0.20969962  0.50042768    -0.07250
C462        C  0.02155867  0.18720471  0.47681163     0.13610
C463        C  0.04559705  0.20764148  0.45012180    -0.24080
H464        H  0.03643876  0.12777839  0.45972269     0.14900
H465        H  0.46028203  0.20745913  0.04250840     0.14930
C466        C  0.45005432  0.12807655  0.05253231    -0.24030
H467        H  0.05923446  0.18549877  0.43321272     0.05140
H468        H  0.07817745  0.22575225  0.45771460     0.08360
H469        H  0.01799172  0.22767228  0.43885100     0.08360
H470        H  0.47747520  0.11089732  0.06627178     0.08350
H471        H  0.41999981  0.10771441  0.04432604     0.08350
H472        H  0.43252248  0.15074115  0.06765949     0.05120
C473        C  0.03548656  0.81189116  0.01647508    -0.20680
C474        C  0.50101085  0.79143699  0.49810814    -0.07250
C475        C  0.46704135  0.81381218  0.48014187     0.13620
C476        C  0.46817727  0.85603361  0.48134686    -0.20730
C477        C  0.50143617  0.87640519  0.50052533    -0.07250
C478        C  0.03569836  0.85409078  0.01825377     0.13610
C479        C  0.07315916  0.87451948  0.03863584    -0.24080
H480        H  0.06160935  0.79468841  0.03009692     0.14900
H481        H  0.44231459  0.87331283  0.46760062     0.14930
C482        C  0.43055635  0.79358143  0.45898050    -0.24030
H483        H  0.09906954  0.85252769  0.04929839     0.05140
H484        H  0.05340522  0.89075296  0.05700105     0.08360
H485        H  0.09593442  0.89621960  0.52549208     0.08360
H486        H  0.40293165  0.77571034  0.97196077     0.08350
H487        H  0.45106030  0.77356480  0.44314332     0.08350
H488        H  0.40923757  0.81585020  0.44536226     0.05120
O489        O  0.99832113  0.06031308  0.52702909    -0.73320
O490        O  0.50026993  0.93960654  0.52617043    -0.74300
O491        O  0.07348675  0.00036251  0.52681116    -0.62920
O492        O  0.42464908  0.99953400  0.52651829    -0.71330
O493        O  0.42445452  0.00093962  0.97633164    -0.70880
O494        O  0.07331207  0.00031588  0.97660762    -0.62130
O495        O  0.49864080  0.94018919  0.97605971    -0.74640
O496        O  0.99909007  0.06112529  0.97703348    -0.73420
Cu497      Cu  0.99913202  0.99993826  0.52838775     1.04560
Cu498      Cu  0.49887610  0.00066885  0.97473554     1.04330
C499        C  0.99827180  0.07992563  0.50223954     0.92880
C500        C  0.50017056  0.92085346  0.00098337     0.92020
C501        C  0.09678854  0.00018184  0.50171055     0.84160
C502        C  0.40113920  0.00032934  0.50142957     0.90440
O503        O  0.00251915  0.05997449  0.77571019    -0.73320
O504        O  0.00288524  0.93874937  0.77455022    -0.74300
O505        O  0.07732115  0.99944737  0.77536098    -0.62920
O506        O  0.42856706  0.99939153  0.77538012    -0.71330
O507        O  0.42851780  0.00067896  0.72518826    -0.70880
O508        O  0.07746049  0.99955556  0.72516282    -0.62130
O509        O  0.00226544  0.93982704  0.72458553    -0.74640
O510        O  0.00398230  0.06035581  0.72558302    -0.73420
Cu511      Cu  0.00286356  0.99935269  0.77703311     1.04560
Cu512      Cu  0.00304095  0.00012241  0.72338610     1.04330
C513        C  0.00360196  0.07919201  0.75071846     0.92880
C514        C  0.00207704  0.92004102  0.74927890     0.92020
C515        C  0.10079944  0.99952246  0.75030730     0.84160
C516        C  0.40514858  0.00013269  0.75029146     0.90440
O517        O  0.24748008  0.06078507  0.97687085    -0.73320
O518        O  0.24883701  0.93989666  0.97616792    -0.74300
O519        O  0.17425551  0.00002121  0.97652180    -0.62920
O520        O  0.32309255  0.00072336  0.97642685    -0.71330
O521        O  0.32359751  0.00029046  0.52663428    -0.70880
O522        O  0.17473872  0.99954413  0.52673446    -0.62130
O523        O  0.25022329  0.93950775  0.52631342    -0.74640
O524        O  0.24870592  0.06029671  0.52706381    -0.73420
Cu525      Cu  0.24847362  0.00036961  0.97471941     1.04560
Cu526      Cu  0.24929492  0.99988725  0.52845695     1.04330
C527        C  0.24758741  0.07946206  0.50209065     0.92880
C528        C  0.24957725  0.92069091  0.50114631     0.92020
C529        C  0.15111493  0.99986677  0.50167155     0.84160
C530        C  0.34675313  0.00048612  0.50148200     0.90440
O531        O  0.25418583  0.93995179  0.77585976    -0.73320
O532        O  0.25165125  0.06053436  0.77535803    -0.74300
O533        O  0.17853615  0.99942033  0.77555544    -0.62920
O534        O  0.32747505  0.00095114  0.77545297    -0.71330
O535        O  0.32738025  0.99959068  0.72524620    -0.70880
O536        O  0.17862352  0.00010514  0.72534625    -0.62130
O537        O  0.25365928  0.06026392  0.72519228    -0.74640
O538        O  0.25280273  0.93945409  0.72565077    -0.73420
Cu539      Cu  0.25298473  0.00024002  0.77733551     1.04560
Cu540      Cu  0.25308316  0.99984439  0.72358083     1.04330
C541        C  0.25367841  0.92082474  0.75085753     0.92880
C542        C  0.25272183  0.07934695  0.75023796     0.92020
C543        C  0.15517581  0.99966543  0.75041264     0.84160
C544        C  0.35081265  0.00026431  0.75033601     0.90440
O545        O  0.04334283  0.66827403  0.54480120    -0.73320
O546        O  0.04156289  0.66587235  0.95463811    -0.74300
O547        O  0.04267416  0.72776733  0.99898226    -0.62920
O548        O  0.04106780  0.60665794  0.00034161    -0.71330
O549        O  0.45825418  0.60771932  0.00088596    -0.70880
O550        O  0.45964720  0.72793697  0.99899676    -0.62130
O551        O  0.45856706  0.66649599  0.95476665    -0.74640
O552        O  0.46049012  0.66912799  0.54543723    -0.73420
Cu553      Cu  0.04506665  0.66714412  0.99969042     1.04560
Cu554      Cu  0.45635662  0.66786755  0.00007722     1.04330
C555        C  0.50235924  0.66915469  0.55951998     0.92880
C556        C  0.50002390  0.66538940  0.94039739     0.92020
C557        C  0.50112280  0.74692918  0.99851628     0.84160
C558        C  0.49920044  0.58795390  0.00048576     0.90440
O559        O  0.45836797  0.66604538  0.70505619    -0.73320
O560        O  0.45695045  0.66733031  0.79511127    -0.74300
O561        O  0.45824771  0.72710711  0.74961026    -0.62920
O562        O  0.45785832  0.60612340  0.75058185    -0.71330
O563        O  0.04081388  0.60586645  0.74983743    -0.70880
O564        O  0.04135609  0.72657641  0.75157705    -0.62130
O565        O  0.03988912  0.66530614  0.79594096    -0.74640
O566        O  0.04120133  0.66711529  0.70508565    -0.73420
Cu567      Cu  0.45500755  0.66664812  0.75005575     1.04560
Cu568      Cu  0.04377638  0.66621133  0.75060061     1.04330
C569        C  0.99965880  0.66638641  0.69065094     0.92880
C570        C  0.99798410  0.66656711  0.80985470     0.92020
C571        C  0.99996964  0.74580885  0.75087923     0.84160
C572        C  0.99927988  0.58683983  0.75040487     0.90440
O573        O  0.20715338  0.66885148  0.95846216    -0.73320
O574        O  0.20896592  0.66670473  0.54882058    -0.74300
O575        O  0.20999816  0.72831152  0.50418983    -0.62920
O576        O  0.20671050  0.60750269  0.50280873    -0.71330
O577        O  0.28962825  0.60616697  0.50311167    -0.70880
O578        O  0.29294555  0.72682944  0.50336869    -0.62130
O579        O  0.29203484  0.66652060  0.54868241    -0.74640
O580        O  0.29004171  0.66656702  0.95777048    -0.73420
Cu581      Cu  0.20535005  0.66792047  0.50362357     1.04560
Cu582      Cu  0.29409658  0.66647230  0.50322213     1.04330
C583        C  0.24816718  0.66801998  0.94374375     0.92880
C584        C  0.25056179  0.66612148  0.56304661     0.92020
C585        C  0.25202803  0.74670670  0.50388098     0.84160
C586        C  0.24769089  0.58766918  0.50261146     0.90440
O587        O  0.29120911  0.66627750  0.79851097    -0.73320
O588        O  0.29211353  0.66806341  0.70810241    -0.74300
O589        O  0.29102151  0.72770961  0.75368472    -0.62920
O590        O  0.29131048  0.60661422  0.75289819    -0.71330
O591        O  0.20853228  0.60681055  0.75308869    -0.70880
O592        O  0.20836385  0.72697347  0.75278331    -0.62130
O593        O  0.20909301  0.66664084  0.70753749    -0.74640
O594        O  0.20826964  0.66693455  0.79842409    -0.73420
Cu595      Cu  0.29431326  0.66716632  0.75332028     1.04560
Cu596      Cu  0.20569751  0.66685956  0.75295563     1.04330
C597        C  0.24978729  0.66603070  0.81283245     0.92880
C598        C  0.25087057  0.66779165  0.69351794     0.92020
C599        C  0.24931960  0.74667926  0.75300832     0.84160
C600        C  0.24976891  0.58744647  0.75318004     0.90440
O601        O  0.46031538  0.33385636  0.54602316    -0.73320
O602        O  0.45875561  0.33322668  0.95553444    -0.74300
O603        O  0.45882706  0.27321908  0.00116557    -0.62920
O604        O  0.46066292  0.39416770  0.00059999    -0.71330
O605        O  0.04345740  0.39312384  0.00003675    -0.70880
O606        O  0.04196630  0.27266687  0.99992402    -0.62130
O607        O  0.04157833  0.33274494  0.95484772    -0.74640
O608        O  0.04336492  0.33325948  0.54542515    -0.73420
Cu609      Cu  0.45671724  0.33366234  0.00083011     1.04560
Cu610      Cu  0.04546539  0.33291481  0.50005799     1.04330
C611        C  0.00214385  0.33384800  0.56002475     0.92880
C612        C  0.99976778  0.33268776  0.94076558     0.92020
C613        C  0.00023973  0.25398259  0.00041215     0.84160
C614        C  0.00249813  0.41289858  0.00044715     0.90440
O615        O  0.04257277  0.33191596  0.70432370    -0.73320
O616        O  0.04494238  0.33255563  0.79476202    -0.74300
O617        O  0.04236113  0.27183008  0.74977427    -0.62920
O618        O  0.04525386  0.39262897  0.74921727    -0.71330
O619        O  0.46229885  0.39374656  0.74983852    -0.70880
O620        O  0.45943485  0.27293520  0.75121861    -0.62130
O621        O  0.46213095  0.33416493  0.79559043    -0.74640
O622        O  0.45952417  0.33208297  0.70512018    -0.73420
Cu623      Cu  0.04667072  0.33218629  0.74948650     1.04560
Cu624      Cu  0.45794595  0.33331327  0.75043568     1.04330
C625        C  0.00063341  0.33152831  0.69043448     0.92880
C626        C  0.00400068  0.33356887  0.80958921     0.92020
C627        C  0.00051183  0.25324983  0.75088364     0.84160
C628        C  0.00419059  0.41234283  0.74937830     0.90440
O629        O  0.29049326  0.33345142  0.95679095    -0.73320
O630        O  0.29101871  0.33318207  0.54752832    -0.74300
O631        O  0.29091590  0.27329268  0.50201714    -0.62920
O632        O  0.29165500  0.39346885  0.50231819    -0.71330
O633        O  0.20874936  0.39413731  0.50198485    -0.70880
O634        O  0.20817227  0.27271144  0.50243481    -0.62130
O635        O  0.20810889  0.33355230  0.54730161    -0.74640
O636        O  0.20756338  0.33296177  0.95711204    -0.73420
Cu637      Cu  0.29387813  0.33335890  0.50214394     1.04560
Cu638      Cu  0.20523514  0.33340130  0.50220005     1.04330
C639        C  0.24876419  0.33280659  0.94259725     0.92880
C640        C  0.24941092  0.33297994  0.56178657     0.92020
C641        C  0.24988280  0.25370906  0.50244275     0.84160
C642        C  0.25052885  0.41299330  0.50234099     0.90440
O643        O  0.21103296  0.33319915  0.79756514    -0.73320
O644        O  0.21149339  0.33386574  0.70685772    -0.74300
O645        O  0.20923766  0.27328939  0.75198418    -0.62920
O646        O  0.21288580  0.39376742  0.75246888    -0.71330
O647        O  0.29565661  0.39236692  0.75274903    -0.70880
O648        O  0.29210428  0.27165450  0.75197483    -0.62130
O649        O  0.29439995  0.33265296  0.70720858    -0.74640
O650        O  0.29396483  0.33173505  0.79747464    -0.73420
Cu651      Cu  0.20824758  0.33356833  0.75220775     1.04560
Cu652      Cu  0.29688815  0.33200143  0.75235876     1.04330
C653        C  0.25264257  0.33274078  0.81186925     0.92880
C654        C  0.25315570  0.33372841  0.69266467     0.92020
C655        C  0.25004803  0.25328320  0.75203534     0.84160
C656        C  0.25479196  0.41232806  0.75262004     0.90440
C657        C  0.21385731  0.31297825  0.86041876    -0.20680
C658        C  0.25269545  0.33300288  0.84531141    -0.07250
C659        C  0.28994297  0.35312735  0.86239742     0.13620
C660        C  0.28727928  0.35247901  0.89401443    -0.20730
C661        C  0.24849278  0.33243656  0.90914390    -0.07250
C662        C  0.21117280  0.31234040  0.89205835     0.13610
C663        C  0.16930964  0.28904091  0.90677248    -0.24080
H664        H  0.18570072  0.29719454  0.84733457     0.14900
H665        H  0.31546335  0.36827382  0.90706694     0.14930
C666        C  0.33172311  0.37650312  0.84768276    -0.24030
H667        H  0.14548185  0.27342326  0.88985065     0.05140
H668        H  0.14466220  0.30972971  0.91963719     0.08360
H669        H  0.18507245  0.26586263  0.92215924     0.08360
H670        H  0.31587424  0.39959833  0.83225771     0.08350
H671        H  0.35647522  0.35584372  0.83486623     0.08350
H672        H  0.35545280  0.39222617  0.86459840     0.05120
C673        C  0.28920063  0.35147165  0.61042608    -0.20680
C674        C  0.24935109  0.33268608  0.59527360    -0.07250
C675        C  0.21096143  0.31410674  0.61238757     0.13620
C676        C  0.21341571  0.31526870  0.64402467    -0.20730
C677        C  0.25325563  0.33406148  0.65917715    -0.07250
C678        C  0.29158902  0.35269383  0.64206687     0.13610
C679        C  0.33393333  0.37556518  0.65671896    -0.24080
H680        H  0.31835643  0.36599691  0.59737575     0.14900
H681        H  0.18422656  0.30079320  0.65707709     0.14930
C682        C  0.16826321  0.29159137  0.59775564    -0.24030
H683        H  0.35857861  0.39012235  0.63975480     0.05140
H684        H  0.35767945  0.35499114  0.67024570     0.08360
H685        H  0.31846002  0.39956626  0.67144121     0.08360
H686        H  0.18321390  0.26769441  0.58270042     0.08350
H687        H  0.14447892  0.31253051  0.58456521     0.08350
H688        H  0.14373400  0.27693687  0.61473491     0.05120
C689        C  0.04240481  0.34662858  0.89215247    -0.20680
C690        C  0.99952217  0.33256748  0.90717269    -0.07250
C691        C  0.45844349  0.31853479  0.88978519     0.13620
C692        C  0.46154253  0.31923195  0.85816372    -0.20730
C693        C  0.00436386  0.33342163  0.84315939    -0.07250
C694        C  0.04550755  0.34730326  0.86053226     0.13610
C695        C  0.09240716  0.36391159  0.84625732    -0.24080
H696        H  0.07376294  0.35772773  0.90528294     0.14900
H697        H  0.43021973  0.30809780  0.84501073     0.14930
C698        C  0.41159898  0.30177842  0.90402793    -0.24030
H699        H  0.11944347  0.37504213  0.86342181     0.05140
H700        H  0.08278976  0.38953224  0.83122666     0.08360
H701        H  0.11163332  0.34001905  0.83314921     0.08360
H702        H  0.39218632  0.32562136  0.91708710     0.08350
H703        H  0.42133420  0.27621025  0.91908367     0.08350
H704        H  0.38467113  0.29051916  0.88684615     0.05120
C705        C  0.46867675  0.30848003  0.60849521    -0.20680
C706        C  0.00247037  0.33375185  0.59339004    -0.07250
C707        C  0.03511311  0.35850225  0.61037517     0.13620
C708        C  0.03392197  0.35659368  0.64199012    -0.20730
C709        C  0.00011708  0.33139520  0.65709666    -0.07250
C710        C  0.46721287  0.30678788  0.64015557     0.13610
C711        C  0.43223368  0.27735043  0.65516967    -0.24080
H712        H  0.44381963  0.28944231  0.59539982     0.14900
H713        H  0.05870800  0.37571314  0.65507052     0.14930
C714        C  0.06888148  0.38885824  0.59548401    -0.24030
H715        H  0.41132648  0.25904875  0.63836203     0.05140
H716        H  0.40429724  0.29355527  0.66910098     0.08360
H717        H  0.45397071  0.25644050  0.66971920     0.08360
H718        H  0.04573687  0.40982072  0.58184831     0.08350
H719        H  0.09662786  0.37366059  0.58079553     0.08350
H720        H  0.08999421  0.40697383  0.61231090     0.05120
C721        C  0.21111111  0.47717316  0.76164086    -0.20680
C722        C  0.25517686  0.45716499  0.75292178    -0.07250
C723        C  0.29737319  0.48043822  0.74441655     0.13620
C724        C  0.29397489  0.52260855  0.74474310    -0.20730
C725        C  0.24985933  0.54260854  0.75335821    -0.07250
C726        C  0.20772532  0.51931702  0.76205379     0.13610
C727        C  0.15915208  0.53805299  0.77239214    -0.24080
H728        H  0.17882944  0.45966122  0.76845508     0.14900
H729        H  0.32616003  0.54013447  0.73781561     0.14930
C730        C  0.34594193  0.46159019  0.73432225    -0.24030
H731        H  0.13144488  0.51501457  0.77951463     0.05140
H732        H  0.14187844  0.55535232  0.75365931     0.08360
H733        H  0.16609930  0.55811310  0.79202431     0.08360
H734        H  0.33922099  0.44174148  0.71458801     0.08350
H735        H  0.36258722  0.44396897  0.75307903     0.08350
H736        H  0.37390827  0.48456360  0.72747716     0.05120
C737        C  0.28648493  0.52254239  0.51669275    -0.20680
C738        C  0.24717704  0.54299163  0.50222664    -0.07250
C739        C  0.20950513  0.52040045  0.48736096     0.13620
C740        C  0.21213293  0.47816836  0.48765905    -0.20730
C741        C  0.25108237  0.45770353  0.50245017    -0.07250
C742        C  0.28907655  0.48034046  0.51703422     0.13610
C743        C  0.33184261  0.46059725  0.53371955    -0.24080
H744        H  0.31523709  0.53977061  0.52817889     0.14900
H745        H  0.18387675  0.46093500  0.97577334     0.14930
C746        C  0.16736083  0.54029108  0.97022577    -0.24030
H747        H  0.35626475  0.48307533  0.54506076     0.05140
H748        H  0.35569749  0.44351538  0.01771635     0.08360
H749        H  0.31702033  0.44002740  0.55132133     0.08360
H750        H  0.18284014  0.56060579  0.95266438     0.08350
H751        H  0.14339775  0.55776593  0.48590305     0.08350
H752        H  0.14295013  0.51787831  0.95880560     0.05120
C753        C  0.28442257  0.64579004  0.89499349    -0.20680
C754        C  0.24739128  0.66786657  0.91024225    -0.07250
C755        C  0.21077725  0.68889594  0.89321930     0.13620
C756        C  0.21242856  0.68725871  0.86154582    -0.20730
C757        C  0.24973086  0.66547545  0.84631660    -0.07250
C758        C  0.28579112  0.64386449  0.86333233     0.13610
C759        C  0.32423084  0.61701720  0.84851739    -0.24080
H760        H  0.31197687  0.62919248  0.90799404     0.14900
H761        H  0.18482511  0.70377270  0.84852358     0.14930
C762        C  0.17111393  0.71455258  0.90802726    -0.24030
H763        H  0.34707311  0.60046887  0.86542918     0.05140
H764        H  0.35037751  0.63500182  0.83463885     0.08360
H765        H  0.30517237  0.59443111  0.83401197     0.08360
H766        H  0.18903597  0.73748857  0.92274904     0.08350
H767        H  0.14558709  0.69559749  0.92164797     0.08350
H768        H  0.14776016  0.73064568  0.89112214     0.05120
C769        C  0.28180077  0.69274832  0.61181936    -0.20680
C770        C  0.25065587  0.66561828  0.59640526    -0.07250
C771        C  0.21991944  0.63903178  0.61305802     0.13620
C772        C  0.22043284  0.64085106  0.64472472    -0.20730
C773        C  0.25143354  0.66805652  0.66015350    -0.07250
C774        C  0.28224803  0.69461834  0.64350632     0.13610
C775        C  0.31361294  0.72636845  0.65888878    -0.24080
H776        H  0.30500532  0.71326318  0.59894543     0.14900
H777        H  0.19718155  0.62034991  0.65757874     0.14930
C778        C  0.18835878  0.60741144  0.59767802    -0.24030
H779        H  0.33315900  0.74585796  0.64229758     0.05140
H780        H  0.34258404  0.71220355  0.67332473     0.08360
H781        H  0.28931336  0.74588746  0.67303253     0.08360
H782        H  0.21247012  0.58798706  0.58334437     0.08350
H783        H  0.15921560  0.62172562  0.58345319     0.08350
H784        H  0.16899444  0.58780156  0.61426598     0.05120
C785        C  0.46756927  0.47702667  0.76636851    -0.20680
C786        C  0.00461432  0.45699938  0.74963268    -0.07250
C787        C  0.04021122  0.47996668  0.73341984     0.13620
C788        C  0.03718577  0.52218631  0.73410697    -0.20730
C789        C  0.99966801  0.54218847  0.75051449    -0.07250
C790        C  0.46455043  0.51921614  0.76707730     0.13610
C791        C  0.42488251  0.53872527  0.78641290    -0.24080
H792        H  0.44106045  0.45946100  0.77934556     0.14900
H793        H  0.06403782  0.53976679  0.72138609     0.14930
C794        C  0.08054468  0.46043547  0.71461747    -0.24030
H795        H  0.40261668  0.51607509  0.79902862     0.05140
H796        H  0.39842125  0.55601066  0.77210685     0.08360
H797        H  0.44267868  0.55916211  0.80313295     0.08360
H798        H  0.06335892  0.43994769  0.69770282     0.08350
H799        H  0.10651384  0.44322817  0.72932530     0.08350
H800        H  0.10321810  0.48307482  0.70225713     0.05120
C801        C  0.04151155  0.52285098  0.51058580    -0.20680
C802        C  0.49860842  0.54316373  0.00037118    -0.07250
C803        C  0.45725207  0.52025789  0.98986201     0.13620
C804        C  0.46004667  0.47804887  0.99026871    -0.20730
C805        C  0.00301135  0.45772592  0.00047644    -0.07250
C806        C  0.04459317  0.48068609  0.51058135     0.13610
C807        C  0.09227956  0.46151459  0.52185831    -0.24080
H808        H  0.07301871  0.54015583  0.51890384     0.14900
H809        H  0.42842869  0.46074047  0.98208650     0.14930
C810        C  0.41043525  0.53957801  0.97737344    -0.24030
H811        H  0.11981433  0.48425153  0.52979069     0.05140
H812        H  0.11022218  0.44419548  0.00341492     0.08360
H813        H  0.08409905  0.44125120  0.54104819     0.08360
H814        H  0.42017593  0.55971134  0.95825727     0.08350
H815        H  0.39116228  0.55697896  0.49531062     0.08350
H816        H  0.38336089  0.51685747  0.96884766     0.05120
C817        C  0.46275725  0.68654730  0.89180323    -0.20680
C818        C  0.99976297  0.66445554  0.90702911    -0.07250
C819        C  0.03538568  0.64230112  0.89014647     0.13620
C820        C  0.03386240  0.64396279  0.85851304    -0.20730
C821        C  0.99716800  0.66641028  0.84325749    -0.07250
C822        C  0.46093312  0.68794104  0.86017361     0.13610
C823        C  0.42140189  0.71375804  0.84534287    -0.24080
H824        H  0.43554863  0.70348802  0.90479762     0.14900
H825        H  0.06108161  0.62699648  0.84554822     0.14930
C826        C  0.07363490  0.61537857  0.90509961    -0.24030
H827        H  0.39828993  0.73007752  0.86222532     0.05140
H828        H  0.39566374  0.69494971  0.83172391     0.08360
H829        H  0.43926834  0.73648878  0.83056274     0.08360
H830        H  0.05446845  0.59326125  0.91990000     0.08350
H831        H  0.10025628  0.63345949  0.91867993     0.08350
H832        H  0.09596761  0.59827240  0.88827193     0.05120
C833        C  0.46148289  0.65274292  0.60812429    -0.20680
C834        C  0.00292643  0.66914399  0.59307105    -0.07250
C835        C  0.04332189  0.68464306  0.61035804     0.13620
C836        C  0.04102975  0.68296460  0.64201542    -0.20730
C837        C  0.99950817  0.66657402  0.65707116    -0.07250
C838        C  0.45919816  0.65098232  0.63972939     0.13610
C839        C  0.41425400  0.63108205  0.65396754    -0.24080
H840        H  0.43074070  0.64053195  0.59500075     0.14900
H841        H  0.07178536  0.69513640  0.65514520     0.14930
C842        C  0.08826933  0.70428609  0.59594703    -0.24030
H843        H  0.38822026  0.61858618  0.63676944     0.05140
H844        H  0.39273058  0.65324490  0.66742002     0.08360
H845        H  0.42659886  0.60584443  0.66863737     0.08360
H846        H  0.07597002  0.72957013  0.58130466     0.08350
H847        H  0.10941262  0.68200263  0.58237494     0.08550
H848        H  0.11456604  0.71662022  0.61306499     0.05120
C849        C  0.21191794  0.14357149  0.76366360    -0.20680
C850        C  0.25239522  0.12361505  0.75027164    -0.07250
C851        C  0.29205487  0.14605964  0.73778292     0.13620
C852        C  0.29006620  0.18822958  0.73879477    -0.20730
C853        C  0.24914150  0.20858517  0.75172036    -0.07250
C854        C  0.20938617  0.18578939  0.76435883     0.13610
C855        C  0.16479070  0.20529225  0.77931188    -0.24080
H856        H  0.18183149  0.12590900  0.77335623     0.14900
H857        H  0.32065502  0.20540480  0.72921357     0.14930
C858        C  0.33718771  0.12561901  0.72423718    -0.24030
H859        H  0.13911456  0.18263281  0.78929740     0.05140
H860        H  0.14286904  0.22264879  0.76245850     0.08360
H861        H  0.17751114  0.22552454  0.79776557     0.08360
H862        H  0.32573362  0.10716824  0.70450575     0.08350
H863        H  0.35518578  0.10591241  0.74135805     0.08350
H864        H  0.36551924  0.14775566  0.71644202     0.05120
C865        C  0.29515255  0.81203679  0.75404985    -0.20680
C866        C  0.24892080  0.79164296  0.75235084    -0.07250
C867        C  0.20415974  0.81482174  0.74981445     0.13620
C868        C  0.20721586  0.85699540  0.74927870    -0.20730
C869        C  0.25326932  0.87668751  0.75115635    -0.07250
C870        C  0.29776738  0.85422329  0.75351628     0.13610
C871        C  0.34793476  0.87484925  0.75530475    -0.24080
H872        H  0.32965205  0.79501518  0.75586255     0.14900
H873        H  0.17334904  0.87489203  0.74746822     0.14930
C874        C  0.15284844  0.79609425  0.74755850    -0.24030
H875        H  0.37920020  0.85284900  0.75673005     0.05140
H876        H  0.34941884  0.89440820  0.77562707     0.08360
H877        H  0.35360815  0.89367205  0.73489885     0.08360
H878        H  0.14516984  0.77811196  0.76811091     0.08350
H879        H  0.15049243  0.77674517  0.72715593     0.08350
H880        H  0.12282656  0.81913796  0.74569578     0.05120
C881        C  0.20618480  0.18817104  0.99501202    -0.20680
C882        C  0.25044278  0.20881669  0.50274969    -0.07250
C883        C  0.29359155  0.18600110  0.51080329     0.13620
C884        C  0.29109495  0.14378197  0.51066106    -0.20730
C885        C  0.24724157  0.12369315  0.50240812    -0.07250
C886        C  0.20418000  0.14591939  0.99467308     0.13610
C887        C  0.15591517  0.12505637  0.98660500    -0.24080
H888        H  0.17294348  0.20509489  0.98895484     0.14900
H889        H  0.32383324  0.12617532  0.51670542     0.14930
C890        C  0.34237421  0.20526767  0.52006607    -0.24030
H891        H  0.12580701  0.14704455  0.98147799     0.05140
H892        H  0.14340853  0.10601809  0.50576732     0.08360
H893        H  0.16143165  0.10581080  0.96638109     0.08360
H894        H  0.33631028  0.22561886  0.53962488     0.08350
H895        H  0.35859724  0.22222158  0.00084009     0.08350
H896        H  0.37041632  0.18243137  0.52699478     0.05120
C897        C  0.28748683  0.85641463  0.51765548    -0.20680
C898        C  0.25015202  0.87629712  0.50110514    -0.07250
C899        C  0.21355871  0.85359466  0.48561025     0.13620
C900        C  0.21500085  0.81142289  0.48728220    -0.20730
C901        C  0.25285382  0.79131569  0.50339701    -0.07250
C902        C  0.28982511  0.81418736  0.51870253     0.13610
C903        C  0.33088950  0.79459237  0.53694031    -0.24080
H904        H  0.31533459  0.87411868  0.52956024     0.14900
H905        H  0.18673441  0.79398841  0.47552145     0.14930
C906        C  0.17227584  0.87368590  0.46790358    -0.24030
H907        H  0.35454169  0.81722963  0.54868702     0.05140
H908        H  0.35582545  0.77687900  0.02195361     0.08360
H909        H  0.31434612  0.77457321  0.55433670     0.08360
H910        H  0.18839816  0.89070626  0.94869521     0.08350
H911        H  0.15125489  0.89470528  0.48268087     0.08350
H912        H  0.14534820  0.85142197  0.95857603     0.05120
C913        C  0.46737720  0.14388911  0.76784220    -0.20680
C914        C  0.00376230  0.12360943  0.75084401    -0.07250
C915        C  0.03934914  0.14597640  0.73430520     0.13620
C916        C  0.03728473  0.18816651  0.73495319    -0.20730
C917        C  0.00012416  0.20863656  0.75132019    -0.07250
C918        C  0.46469153  0.18613573  0.76809546     0.13610
C919        C  0.42485421  0.20619894  0.78696658    -0.24080
H920        H  0.44034754  0.12648828  0.78058006     0.14900
H921        H  0.06463861  0.20531779  0.72228516     0.14930
C922        C  0.08050216  0.12558569  0.71670844    -0.24030
H923        H  0.40253046  0.18390358  0.79989524     0.05140
H924        H  0.39848471  0.22298480  0.77223425     0.08360
H925        H  0.44247103  0.22714132  0.80340415     0.08360
H926        H  0.06427444  0.10731702  0.69814138     0.08350
H927        H  0.10264819  0.10583333  0.73192857     0.08350
H928        H  0.10651984  0.14775926  0.70644387     0.05120
C929        C  0.48083351  0.81041294  0.72598811    -0.20680
C930        C  0.00038138  0.79010975  0.75102433    -0.07250
C931        C  0.02009485  0.81225204  0.77546995     0.13620
C932        C  0.02007766  0.85448132  0.77416257    -0.20730
C933        C  0.00128532  0.87521413  0.74885643    -0.07250
C934        C  0.48148525  0.85262932  0.72431568     0.13610
C935        C  0.46014483  0.87231910  0.69644428    -0.24080
H936        H  0.46569026  0.79298668  0.70738167     0.14900
H937        H  0.03518207  0.87137831  0.79302923     0.14930
C938        C  0.03971313  0.79145874  0.80332947    -0.24030
H939        H  0.44397667  0.84989052  0.68057471     0.05140
H940        H  0.49010330  0.88858977  0.68414711     0.08360
H941        H  0.42985632  0.89357082  0.70279915     0.08360
H942        H  0.07144515  0.77143864  0.79745129     0.08350
H943        H  0.00958097  0.77313419  0.81361432     0.08350
H944        H  0.05304263  0.81334980  0.82051844     0.05120
C945        C  0.01980011  0.14500189  0.97793098    -0.20680
C946        C  0.99794654  0.12467495  0.00244664    -0.07250
C947        C  0.47595954  0.14754577  0.52606948     0.13620
C948        C  0.47698946  0.18976785  0.52455567    -0.20730
C949        C  0.99985556  0.20969964  0.00042768    -0.07250
C950        C  0.02155870  0.18720473  0.97681163     0.13610
C951        C  0.04559708  0.20764150  0.95012179    -0.24080
H952        H  0.03643878  0.12777841  0.95972268     0.14900
H953        H  0.46028204  0.20745911  0.54250840     0.14930
C954        C  0.45005433  0.12807653  0.55253231    -0.24030
H955        H  0.05923449  0.18549879  0.93321271     0.05140
H956        H  0.07817748  0.22575227  0.95771459     0.08360
H957        H  0.01799174  0.22767230  0.93885100     0.08360
H958        H  0.47747521  0.11089730  0.56627178     0.08350
H959        H  0.41999981  0.10771439  0.54432605     0.08350
H960        H  0.43252250  0.15074113  0.56765950     0.05120
C961        C  0.03548677  0.81189117  0.51647508    -0.20680
C962        C  0.50101064  0.79143701  0.99810815    -0.07250
C963        C  0.46704114  0.81381222  0.98014190     0.13620
C964        C  0.46817710  0.85603365  0.98134688    -0.20730
C965        C  0.50143605  0.87640521  0.00052534    -0.07250
C966        C  0.03569851  0.85409078  0.51825378     0.13610
C967        C  0.07315925  0.87451951  0.53863586    -0.24080
H968        H  0.06160957  0.79468843  0.53009693     0.14900
H969        H  0.44231443  0.87331289  0.96760065     0.14930
C970        C  0.43055611  0.79358149  0.95898053    -0.24030
H971        H  0.09906965  0.85252773  0.54929842     0.05140
H972        H  0.05340526  0.89075296  0.55700107     0.08360
H973        H  0.09593434  0.89621954  0.02549203     0.08360
H974        H  0.40293189  0.77571027  0.47196073     0.08350
H975        H  0.45106004  0.77356486  0.94314334     0.08350
H976        H  0.40923733  0.81585028  0.94536230     0.05120
O977        O  0.49832114  0.06031311  0.02702909    -0.73320
O978        O  0.00026988  0.93960656  0.02617043    -0.74300
O979        O  0.57348673  0.00036252  0.02681116    -0.62920
O980        O  0.92464906  0.99953403  0.02651829    -0.71330
O981        O  0.92445454  0.00093958  0.47633163    -0.70880
O982        O  0.57331208  0.00031588  0.47660761    -0.62130
O983        O  0.99864086  0.94018916  0.47605971    -0.74640
O984        O  0.49909006  0.06112528  0.47703348    -0.73420
Cu985      Cu  0.49913200  0.99993828  0.02838776     1.04560
Cu986      Cu  0.99887612  0.00066882  0.47473553     1.04330
C987        C  0.49827181  0.07992566  0.00223954     0.92880
C988        C  0.00017064  0.92085344  0.50098336     0.92020
C989        C  0.59678852  0.00018184  0.00171055     0.84160
C990        C  0.90113918  0.00032937  0.00142957     0.90440
O991        O  0.50251916  0.05997448  0.27571019    -0.73320
O992        O  0.50288525  0.93874936  0.27455022    -0.74300
O993        O  0.57732115  0.99944736  0.27536098    -0.62920
O994        O  0.92856706  0.99939151  0.27538011    -0.71330
O995        O  0.92851780  0.00067894  0.22518825    -0.70880
O996        O  0.57746049  0.99955555  0.22516282    -0.62130
O997        O  0.50226545  0.93982703  0.22458553    -0.74640
O998        O  0.50398230  0.06035580  0.22558302    -0.73420
Cu999      Cu  0.50286356  0.99935268  0.27703311     1.04560
Cu1000     Cu  0.50304096  0.00012240  0.22338609     1.04330
C1001       C  0.50360197  0.07919201  0.25071846     0.92880
C1002       C  0.50207705  0.92004101  0.24927890     0.92020
C1003       C  0.60079944  0.99952246  0.25030730     0.84160
C1004       C  0.90514858  0.00013267  0.25029146     0.90440
O1005       O  0.74748011  0.06078506  0.47687084    -0.73320
O1006       O  0.74883699  0.93989664  0.47616791    -0.74300
O1007       O  0.67425552  0.00002121  0.47652180    -0.62920
O1008       O  0.82309257  0.00072332  0.47642684    -0.71330
O1009       O  0.82359749  0.00029048  0.02663428    -0.70880
O1010       O  0.67473870  0.99954413  0.02673446    -0.62130
O1011       O  0.75022329  0.93950775  0.02631342    -0.74640
O1012       O  0.74870589  0.06029671  0.02706381    -0.73420
Cu1013     Cu  0.74847363  0.00036959  0.47471940     1.04560
Cu1014     Cu  0.74929490  0.99988725  0.02845695     1.04330
C1015       C  0.74758738  0.07946207  0.00209066     0.92880
C1016       C  0.74957726  0.92069091  0.00114631     0.92020
C1017       C  0.65111491  0.99986676  0.00167155     0.84160
C1018       C  0.84675311  0.00048615  0.00148200     0.90440
O1019       O  0.75418583  0.93995179  0.27585975    -0.73320
O1020       O  0.75165126  0.06053436  0.27535802    -0.74300
O1021       O  0.67853616  0.99942032  0.27555543    -0.62920
O1022       O  0.82747505  0.00095112  0.27545296    -0.71330
O1023       O  0.82738025  0.99959067  0.22524619    -0.70880
O1024       O  0.67862352  0.00010515  0.22534624    -0.62130
O1025       O  0.75365929  0.06026392  0.22519228    -0.74640
O1026       O  0.75280271  0.93945408  0.22565075    -0.73420
Cu1027     Cu  0.75298474  0.00024001  0.27733551     1.04560
Cu1028     Cu  0.75308316  0.99984439  0.22358082     1.04330
C1029       C  0.75367839  0.92082473  0.25085751     0.92880
C1030       C  0.75272184  0.07934694  0.25023796     0.92020
C1031       C  0.65517581  0.99966543  0.25041263     0.84160
C1032       C  0.85081265  0.00026430  0.25033600     0.90440
O1033       O  0.54334264  0.66827405  0.04480118    -0.73320
O1034       O  0.54156317  0.66587232  0.45463813    -0.74300
O1035       O  0.54267440  0.72776731  0.49898227    -0.62920
O1036       O  0.54106801  0.60665791  0.50034163    -0.71330
O1037       O  0.95825439  0.60771931  0.50088596    -0.70880
O1038       O  0.95964746  0.72793694  0.49899674    -0.62130
O1039       O  0.95856736  0.66649597  0.45476664    -0.74640
O1040       O  0.96048994  0.66912799  0.04543723    -0.73420
Cu1041     Cu  0.54506688  0.66714410  0.49969045     1.04560
Cu1042     Cu  0.95635686  0.66786753  0.50007721     1.04330
C1043       C  0.00235907  0.66915469  0.05951997     0.92880
C1044       C  0.00002421  0.66538938  0.44039739     0.92020
C1045       C  0.00112306  0.74692915  0.49851628     0.84160
C1046       C  0.99920064  0.58795387  0.50048578     0.90440
O1047       O  0.95836800  0.66604537  0.20505621    -0.73320
O1048       O  0.95695065  0.66733030  0.29511129    -0.74300
O1049       O  0.95824781  0.72710710  0.24961028    -0.62920
O1050       O  0.95785841  0.60612340  0.25058187    -0.71330
O1051       O  0.54081393  0.60586643  0.24983741    -0.70880
O1052       O  0.54135616  0.72657640  0.25157701    -0.62130
O1053       O  0.53988927  0.66530614  0.29594093    -0.74640
O1054       O  0.54120132  0.66711527  0.20508562    -0.73420
Cu1055     Cu  0.95500765  0.66664811  0.25005577     1.04560
Cu1056     Cu  0.54377645  0.66621132  0.25060058     1.04330
C1057       C  0.49965877  0.66638639  0.19065093     0.92880
C1058       C  0.49798428  0.66656711  0.30985470     0.92020
C1059       C  0.49996971  0.74580884  0.25087922     0.84160
C1060       C  0.49927993  0.58683982  0.25040487     0.90440
O1061       O  0.70715325  0.66885149  0.45846216    -0.73320
O1062       O  0.70896596  0.66670475  0.04882058    -0.74300
O1063       O  0.70999824  0.72831152  0.00418981    -0.62920
O1064       O  0.70671054  0.60750270  0.00280874    -0.71330
O1065       O  0.78962829  0.60616696  0.00311170    -0.70880
O1066       O  0.79294562  0.72682944  0.00336869    -0.62130
O1067       O  0.79203488  0.66652061  0.04868243    -0.74640
O1068       O  0.79004157  0.66656703  0.45777046    -0.73420
Cu1069     Cu  0.70535011  0.66792047  0.00362357     1.04560
Cu1070     Cu  0.79409664  0.66647230  0.00322214     1.04330
C1071       C  0.74816704  0.66802000  0.44374374     0.92880
C1072       C  0.75056183  0.66612150  0.06304661     0.92020
C1073       C  0.75202810  0.74670670  0.00388097     0.84160
C1074       C  0.74769093  0.58766918  0.00261149     0.90440
O1075       O  0.79120896  0.66627751  0.29851098    -0.73320
O1076       O  0.79211347  0.66806339  0.20810242    -0.74300
O1077       O  0.79102140  0.72770960  0.25368472    -0.62920
O1078       O  0.79131038  0.60661422  0.25289822    -0.71330
O1079       O  0.70853217  0.60681054  0.25308870    -0.70880
O1080       O  0.70836374  0.72697348  0.25278329    -0.62130
O1081       O  0.70909294  0.66664083  0.20753748    -0.74640
O1082       O  0.70826948  0.66693457  0.29842408    -0.73420
Cu1083     Cu  0.79431315  0.66716632  0.25332029     1.04560
Cu1084     Cu  0.70569740  0.66685956  0.25295562     1.04330
C1085       C  0.74978712  0.66603072  0.31283245     0.92880
C1086       C  0.75087052  0.66779163  0.19351795     0.92020
C1087       C  0.74931950  0.74667926  0.25300831     0.84160
C1088       C  0.74976880  0.58744647  0.25318006     0.90440
O1089       O  0.96031534  0.33385637  0.04602315    -0.73320
O1090       O  0.95875562  0.33322667  0.45553445    -0.74300
O1091       O  0.95882704  0.27321907  0.50116557    -0.62920
O1092       O  0.96066298  0.39416769  0.50059999    -0.71330
O1093       O  0.54345748  0.39312381  0.50003675    -0.70880
O1094       O  0.54196632  0.27266684  0.49992402    -0.62130
O1095       O  0.54157837  0.33274491  0.45484772    -0.74640
O1096       O  0.54336490  0.33325952  0.04542515    -0.73420
Cu1097     Cu  0.95671725  0.33366233  0.50083012     1.04560
Cu1098     Cu  0.54546537  0.33291485  0.00005799     1.04330
C1099       C  0.50214383  0.33384802  0.06002475     0.92880
C1100       C  0.49976782  0.33268774  0.44076559     0.92020
C1101       C  0.50023973  0.25398257  0.50041215     0.84160
C1102       C  0.50249822  0.41289856  0.50044716     0.90440
O1103       O  0.54257276  0.33191596  0.20432370    -0.73320
O1104       O  0.54494239  0.33255562  0.29476202    -0.74300
O1105       O  0.54236114  0.27183008  0.24977427    -0.62920
O1106       O  0.54525386  0.39262897  0.24921727    -0.71330
O1107       O  0.96229884  0.39374656  0.24983852    -0.70880
O1108       O  0.95943481  0.27293520  0.25121861    -0.62130
O1109       O  0.96213093  0.33416492  0.29559043    -0.74640
O1110       O  0.95952413  0.33208298  0.20512017    -0.73420
Cu1111     Cu  0.54667073  0.33218629  0.24948650     1.04560
Cu1112     Cu  0.95794592  0.33331328  0.25043568     1.04330
C1113       C  0.50063340  0.33152831  0.19043448     0.92880
C1114       C  0.50400069  0.33356886  0.30958921     0.92020
C1115       C  0.50051184  0.25324983  0.25088364     0.84160
C1116       C  0.50419059  0.41234282  0.24937830     0.90440
O1117       O  0.79049327  0.33345140  0.45679095    -0.73320
O1118       O  0.79101870  0.33318207  0.04752832    -0.74300
O1119       O  0.79091589  0.27329268  0.00201713    -0.62920
O1120       O  0.79165499  0.39346886  0.00231820    -0.71330
O1121       O  0.70874936  0.39413732  0.00198485    -0.70880
O1122       O  0.70817226  0.27271145  0.00243480    -0.62130
O1123       O  0.70810888  0.33355230  0.04730161    -0.74640
O1124       O  0.70756338  0.33296174  0.45711203    -0.73420
Cu1125     Cu  0.79387813  0.33335891  0.00214394     1.04560
Cu1126     Cu  0.70523513  0.33340131  0.00220005     1.04330
C1127       C  0.74876420  0.33280657  0.44259724     0.92880
C1128       C  0.74941091  0.33297994  0.06178657     0.92020
C1129       C  0.74988279  0.25370907  0.00244274     0.84160
C1130       C  0.75052884  0.41299330  0.00234100     0.90440
O1131       O  0.71103295  0.33319913  0.29756514    -0.73320
O1132       O  0.71149336  0.33386574  0.20685772    -0.74300
O1133       O  0.70923766  0.27328938  0.25198418    -0.62920
O1134       O  0.71288575  0.39376741  0.25246888    -0.71330
O1135       O  0.79565657  0.39236692  0.25274903    -0.70880
O1136       O  0.79210428  0.27165450  0.25197482    -0.62130
O1137       O  0.79439992  0.33265297  0.20720858    -0.74640
O1138       O  0.79396482  0.33173505  0.29747464    -0.73420
Cu1139     Cu  0.70824756  0.33356831  0.25220775     1.04560
Cu1140     Cu  0.79688813  0.33200143  0.25235876     1.04330
C1141       C  0.75264256  0.33274076  0.31186925     0.92880
C1142       C  0.75315568  0.33372841  0.19266467     0.92020
C1143       C  0.75004804  0.25328320  0.25203534     0.84160
C1144       C  0.75479191  0.41232806  0.25262005     0.90440
C1145       C  0.71385733  0.31297821  0.36041876    -0.20680
C1146       C  0.75269545  0.33300286  0.34531140    -0.07250
C1147       C  0.78994296  0.35312734  0.36239741     0.13620
C1148       C  0.78727927  0.35247900  0.39401443    -0.20730
C1149       C  0.74849279  0.33243654  0.40914390    -0.07250
C1150       C  0.71117282  0.31234035  0.39205834     0.13610
C1151       C  0.66930969  0.28904084  0.40677247    -0.24080
H1152       H  0.68570075  0.29719449  0.34733456     0.14900
H1153       H  0.81546333  0.36827383  0.40706694     0.14930
C1154       C  0.83172307  0.37650313  0.34768276    -0.24030
H1155       H  0.64548191  0.27342317  0.38985065     0.05140
H1156       H  0.64466223  0.30972962  0.41963719     0.08360
H1157       H  0.68507252  0.26586257  0.42215924     0.08360
H1158       H  0.81587419  0.39959834  0.33225770     0.08350
H1159       H  0.85647520  0.35584375  0.33486622     0.08350
H1160       H  0.85545276  0.39222619  0.36459839     0.05120
C1161       C  0.78920060  0.35147166  0.11042608    -0.20680
C1162       C  0.74935107  0.33268608  0.09527360    -0.07250
C1163       C  0.71096141  0.31410674  0.11238757     0.13620
C1164       C  0.71341568  0.31526870  0.14402467    -0.20730
C1165       C  0.75325561  0.33406149  0.15917715    -0.07250
C1166       C  0.79158899  0.35269384  0.14206687     0.13610
C1167       C  0.83393329  0.37556520  0.15671896    -0.24080
H1168       H  0.81835641  0.36599692  0.09737575     0.14900
H1169       H  0.68422654  0.30079320  0.15707709     0.14930
C1170       C  0.66826320  0.29159137  0.09775564    -0.24030
H1171       H  0.85857857  0.39012238  0.13975480     0.05140
H1172       H  0.85767942  0.35499116  0.17024571     0.08360
H1173       H  0.81845997  0.39956628  0.17144121     0.08360
H1174       H  0.68321388  0.26769441  0.08270041     0.08350
H1175       H  0.64447890  0.31253051  0.08456521     0.08350
H1176       H  0.64373398  0.27693687  0.11473491     0.05120
C1177       C  0.54240485  0.34662854  0.39215247    -0.20680
C1178       C  0.49952220  0.33256747  0.40717269    -0.07250
C1179       C  0.95844348  0.31853478  0.38978519     0.13620
C1180       C  0.96154251  0.31923195  0.35816372    -0.20730
C1181       C  0.50436388  0.33342161  0.34315940    -0.07250
C1182       C  0.54550759  0.34730322  0.36053226     0.13610
C1183       C  0.59240720  0.36391154  0.34625732    -0.24080
H1184       H  0.57376299  0.35772768  0.40528294     0.14900
H1185       H  0.93021970  0.30809781  0.34501073     0.14930
C1186       C  0.91159896  0.30177843  0.40402794    -0.24030
H1187       H  0.61944353  0.37504206  0.36342181     0.05140
H1188       H  0.58278982  0.38953219  0.33122666     0.08360
H1189       H  0.61163335  0.34001899  0.33314920     0.08360
H1190       H  0.89218632  0.32562137  0.41708710     0.08350
H1191       H  0.92133417  0.27621025  0.41908367     0.08350
H1192       H  0.88467110  0.29051918  0.38684615     0.05120
C1193       C  0.96867670  0.30848005  0.10849520    -0.20680
C1194       C  0.50247035  0.33375188  0.09339004    -0.07250
C1195       C  0.53511309  0.35850227  0.11037517     0.13620
C1196       C  0.53392196  0.35659370  0.14199012    -0.20730
C1197       C  0.50011707  0.33139521  0.15709666    -0.07250
C1198       C  0.96721282  0.30678790  0.14015557     0.13610
C1199       C  0.93223363  0.27735045  0.15516966    -0.24080
H1200       H  0.94381957  0.28944234  0.09539981     0.14900
H1201       H  0.55870798  0.37571316  0.15507052     0.14930
C1202       C  0.56888147  0.38885826  0.09548402    -0.24030
H1203       H  0.91132643  0.25904878  0.13836203     0.05140
H1204       H  0.90429720  0.29355529  0.16910098     0.08360
H1205       H  0.95397066  0.25644052  0.16971919     0.08360
H1206       H  0.54573687  0.40982074  0.08184831     0.08350
H1207       H  0.59662785  0.37366060  0.08079554     0.08350
H1208       H  0.58999420  0.40697385  0.11231091     0.05120
C1209       C  0.71111103  0.47717315  0.26164086    -0.20680
C1210       C  0.75517680  0.45716499  0.25292179    -0.07250
C1211       C  0.79737313  0.48043823  0.24441658     0.13620
C1212       C  0.79397481  0.52260856  0.24474313    -0.20730
C1213       C  0.74985924  0.54260854  0.25335822    -0.07250
C1214       C  0.70772523  0.51931701  0.26205379     0.13610
C1215       C  0.65915198  0.53805297  0.27239213    -0.24080
H1216       H  0.67882936  0.45966120  0.26845507     0.14900
H1217       H  0.82615996  0.54013449  0.23781565     0.14930
C1218       C  0.84594189  0.46159021  0.23432229    -0.24030
H1219       H  0.63144478  0.51501455  0.27951461     0.05140
H1220       H  0.64187835  0.55535230  0.25365930     0.08360
H1221       H  0.66609918  0.55811308  0.29202431     0.08360
H1222       H  0.83922097  0.44174150  0.21458805     0.08350
H1223       H  0.86258716  0.44396900  0.25307907     0.08350
H1224       H  0.87390823  0.48456363  0.22747721     0.05120
C1225       C  0.78648494  0.52254239  0.01669279    -0.20680
C1226       C  0.74717706  0.54299163  0.00222667    -0.07250
C1227       C  0.70950516  0.52040046  0.98736098     0.13620
C1228       C  0.71213294  0.47816837  0.98765907    -0.20730
C1229       C  0.75108237  0.45770353  0.00245019    -0.07250
C1230       C  0.78907654  0.48034045  0.01703426     0.13610
C1231       C  0.83184258  0.46059724  0.03371961    -0.24080
H1232       H  0.81523708  0.53977059  0.02817894     0.14900
H1233       H  0.68387673  0.46093498  0.47577331     0.14930
C1234       C  0.66736079  0.54029106  0.47022573    -0.24030
H1235       H  0.85626470  0.48307530  0.04506083     0.05140
H1236       H  0.85569749  0.44351539  0.51771628     0.08360
H1237       H  0.81702026  0.44002738  0.05132138     0.08360
H1238       H  0.68284010  0.56060576  0.45266434     0.08350
H1239       H  0.64339778  0.55776595  0.98590307     0.08350
H1240       H  0.64295010  0.51787828  0.45880556     0.05120
C1241       C  0.78442234  0.64578998  0.39499348    -0.20680
C1242       C  0.74739112  0.66786659  0.41024225    -0.07250
C1243       C  0.71077716  0.68889605  0.39321930     0.13620
C1244       C  0.71242846  0.68725881  0.36154582    -0.20730
C1245       C  0.74973068  0.66547547  0.34631660    -0.07250
C1246       C  0.78579088  0.64386444  0.36333232     0.13610
C1247       C  0.82423053  0.61701709  0.34851738    -0.24080
H1248       H  0.81197657  0.62919236  0.40799403     0.14900
H1249       H  0.68482506  0.70377286  0.34852359     0.14930
C1250       C  0.67111397  0.71455281  0.40802727    -0.24030
H1251       H  0.84707275  0.60046871  0.36542917     0.05140
H1252       H  0.85037725  0.63500168  0.33463885     0.08360
H1253       H  0.80517200  0.59443105  0.33401195     0.08360
H1254       H  0.68903614  0.73748876  0.42274904     0.08350
H1255       H  0.64558708  0.69559781  0.42164800     0.08350
H1256       H  0.64776025  0.73064596  0.39112215     0.05120
C1257       C  0.78180080  0.69274831  0.11181937    -0.20680
C1258       C  0.75065589  0.66561829  0.09640527    -0.07250
C1259       C  0.71991944  0.63903180  0.11305801     0.13620
C1260       C  0.72043282  0.64085107  0.14472471    -0.20730
C1261       C  0.75143352  0.66805651  0.16015350    -0.07250
C1262       C  0.78224803  0.69461832  0.14350633     0.13610
C1263       C  0.81361295  0.72636842  0.15888880    -0.24080
H1264       H  0.80500537  0.71326316  0.09894546     0.14900
H1265       H  0.69718150  0.62034992  0.15757873     0.14930
C1266       C  0.68835876  0.60741147  0.09767800    -0.24030
H1267       H  0.83315903  0.74585792  0.14229762     0.05140
H1268       H  0.84258404  0.71220350  0.17332476     0.08360
H1269       H  0.78931338  0.74588743  0.17303255     0.08360
H1270       H  0.71247010  0.58798708  0.08334435     0.08350
H1271       H  0.65921559  0.62172566  0.08345317     0.08350
H1272       H  0.66899440  0.58780159  0.11426595     0.05120
C1273       C  0.96756930  0.47702668  0.26636851    -0.20680
C1274       C  0.50461433  0.45699937  0.24963268    -0.07250
C1275       C  0.54021121  0.47996667  0.23341982     0.13620
C1276       C  0.53718578  0.52218629  0.23410695    -0.20730
C1277       C  0.49966804  0.54218846  0.25051449    -0.07250
C1278       C  0.96455049  0.51921615  0.26707730     0.13610
C1279       C  0.92488257  0.53872528  0.28641290    -0.24080
H1280       H  0.94106047  0.45946101  0.27934556     0.14900
H1281       H  0.56403782  0.53976676  0.22138606     0.14930
C1282       C  0.58054464  0.46043545  0.21461743    -0.24030
H1283       H  0.90261674  0.51607511  0.29902862     0.05140
H1284       H  0.89842132  0.55601068  0.27210685     0.08360
H1285       H  0.94267875  0.55916212  0.30313294     0.08360
H1286       H  0.56335885  0.43994767  0.19770279     0.08350
H1287       H  0.60651382  0.44322814  0.22932524     0.08350
H1288       H  0.60321806  0.48307479  0.20225708     0.05120
C1289       C  0.54151140  0.52285103  0.01058577    -0.20680
C1290       C  0.99860859  0.54316370  0.50037119    -0.07250
C1291       C  0.95725222  0.52025788  0.48986203     0.13620
C1292       C  0.96004678  0.47804886  0.49026872    -0.20730
C1293       C  0.50301147  0.45772590  0.50047646    -0.07250
C1294       C  0.54459306  0.48068614  0.01058133     0.13610
C1295       C  0.59227946  0.46151467  0.02185828    -0.24080
H1296       H  0.57301855  0.54015589  0.01890381     0.14900
H1297       H  0.92842879  0.46074049  0.48208650     0.14930
C1298       C  0.91043542  0.53957803  0.47737346    -0.24030
H1299       H  0.61981423  0.48425162  0.02979066     0.05140
H1300       H  0.61022228  0.44419541  0.50341497     0.08360
H1301       H  0.58409898  0.44125128  0.04104817     0.08360
H1302       H  0.92017610  0.55971136  0.45825729     0.08350
H1303       H  0.89116210  0.55697894  0.99531061     0.08350
H1304       H  0.88336104  0.51685751  0.46884767     0.05120
C1305       C  0.96275750  0.68654723  0.39180325    -0.20680
C1306       C  0.49976328  0.66445555  0.40702912    -0.07250
C1307       C  0.53538604  0.64230121  0.39014646     0.13620
C1308       C  0.53386273  0.64396288  0.35851303    -0.20730
C1309       C  0.49716823  0.66641029  0.34325749    -0.07250
C1310       C  0.96093334  0.68794097  0.36017362     0.13610
C1311       C  0.92140199  0.71375787  0.34534290    -0.24080
H1312       H  0.93554883  0.70348788  0.40479764     0.14900
H1313       H  0.56108198  0.62699663  0.34554819     0.14930
C1314       C  0.57363537  0.61537873  0.40509958    -0.24030
H1315       H  0.89829000  0.73007731  0.36222536     0.05140
H1316       H  0.89566387  0.69494946  0.33172397     0.08360
H1317       H  0.93926832  0.73648864  0.33056275     0.08360
H1318       H  0.55446899  0.59326136  0.41989996     0.08350
H1319       H  0.60025669  0.63345970  0.41867990     0.08350
H1320       H  0.59596812  0.59827262  0.38827190     0.05120
C1321       C  0.96148279  0.65274290  0.10812430    -0.20680
C1322       C  0.50292629  0.66914398  0.09307105    -0.07250
C1323       C  0.54332177  0.68464306  0.11035802     0.13620
C1324       C  0.54102966  0.68296459  0.14201540    -0.20730
C1325       C  0.49950810  0.66657401  0.15707116    -0.07250
C1326       C  0.95919811  0.65098229  0.13972941     0.13610
C1327       C  0.91425398  0.63108200  0.15396757    -0.24080
H1328       H  0.93074059  0.64053193  0.09500078     0.14900
H1329       H  0.57178529  0.69513638  0.15514517     0.14930
C1330       C  0.58826919  0.70428608  0.09594699    -0.24030
H1331       H  0.88822022  0.61858612  0.13676949     0.05140
H1332       H  0.89273056  0.65324484  0.16742007     0.08360
H1333       H  0.92659888  0.60584439  0.16863740     0.08360
H1334       H  0.57596987  0.72957012  0.08130463     0.08350
H1335       H  0.60941247  0.68200262  0.08237489     0.08550
H1336       H  0.61456593  0.71662020  0.11306495     0.05120
C1337       C  0.71191797  0.14357148  0.26366362    -0.20680
C1338       C  0.75239523  0.12361505  0.25027164    -0.07250
C1339       C  0.79205487  0.14605964  0.23778290     0.13620
C1340       C  0.79006620  0.18822958  0.23879476    -0.20730
C1341       C  0.74914151  0.20858517  0.25172035    -0.07250
C1342       C  0.70938620  0.18578938  0.26435885     0.13610
C1343       C  0.66479074  0.20529224  0.27931191    -0.24080
H1344       H  0.68183153  0.12590899  0.27335625     0.14900
H1345       H  0.82065501  0.20540479  0.22921355     0.14930
C1346       C  0.83718770  0.12561900  0.22423714    -0.24030
H1347       H  0.63911461  0.18263280  0.28929744     0.05140
H1348       H  0.64286906  0.22264878  0.26245853     0.08360
H1349       H  0.67751119  0.22552453  0.29776560     0.08360
H1350       H  0.82573360  0.10716824  0.20450572     0.08350
H1351       H  0.85518579  0.10591241  0.24135801     0.08350
H1352       H  0.86551922  0.14775566  0.21644198     0.05120
C1353       C  0.79515247  0.81203678  0.25404987    -0.20680
C1354       C  0.74892072  0.79164296  0.25235082    -0.07250
C1355       C  0.70415968  0.81482175  0.24981439     0.13620
C1356       C  0.70721582  0.85699541  0.24927864    -0.20730
C1357       C  0.75326928  0.87668751  0.25115633    -0.07250
C1358       C  0.79776733  0.85422327  0.25351630     0.13610
C1359       C  0.84793471  0.87484922  0.25530480    -0.24080
H1360       H  0.82965197  0.79501516  0.25586260     0.14900
H1361       H  0.67334901  0.87489205  0.24746813     0.14930
C1362       C  0.65284838  0.79609428  0.24755839    -0.24030
H1363       H  0.87920014  0.85284895  0.25673012     0.05140
H1364       H  0.84941876  0.89440817  0.27562711     0.08360
H1365       H  0.85360815  0.89367201  0.23489890     0.08360
H1366       H  0.64516971  0.77811199  0.26811080     0.08350
H1367       H  0.65049241  0.77674518  0.22715582     0.08350
H1368       H  0.62282651  0.81913799  0.24569564     0.05120
C1369       C  0.70618483  0.18817103  0.49501198    -0.20680
C1370       C  0.75044278  0.20881669  0.00274968    -0.07250
C1371       C  0.79359156  0.18600110  0.01080325     0.13620
C1372       C  0.79109495  0.14378197  0.01066102    -0.20730
C1373       C  0.74724155  0.12369315  0.00240812    -0.07250
C1374       C  0.70418004  0.14591938  0.49467304     0.13610
C1375       C  0.65591523  0.12505635  0.48660492    -0.24080
H1376       H  0.67294353  0.20509487  0.48895478     0.14900
H1377       H  0.82383325  0.12617532  0.01670536     0.14930
C1378       C  0.84237425  0.20526767  0.02006598    -0.24030
H1379       H  0.62580708  0.14704452  0.48147789     0.05140
H1380       H  0.64340852  0.10601810  0.00576741     0.08360
H1381       H  0.66143176  0.10581078  0.46638102     0.08360
H1382       H  0.83631036  0.22561885  0.03962480     0.08350
H1383       H  0.85859725  0.22222158  0.50084019     0.08350
H1384       H  0.87041637  0.18243136  0.02699467     0.05120
C1385       C  0.78748685  0.85641464  0.01765549    -0.20680
C1386       C  0.75015205  0.87629713  0.00110513    -0.07250
C1387       C  0.71355877  0.85359466  0.98561023     0.13620
C1388       C  0.71500093  0.81142289  0.98728217    -0.20730
C1389       C  0.75285388  0.79131569  0.00339699    -0.07250
C1390       C  0.78982515  0.81418737  0.01870254     0.13610
C1391       C  0.83088951  0.79459238  0.03694034    -0.24080
H1392       H  0.81533459  0.87411869  0.02956027     0.14900
H1393       H  0.68673451  0.79398840  0.97552140     0.14930
C1394       C  0.67227590  0.87368589  0.96790355    -0.24030
H1395       H  0.85454167  0.81722965  0.04868706     0.05140
H1396       H  0.85582539  0.77687898  0.52195354     0.08360
H1397       H  0.81434610  0.77457323  0.05433672     0.08360
H1398       H  0.68839806  0.89070626  0.44869523     0.08350
H1399       H  0.65125492  0.89470525  0.98268084     0.08350
H1400       H  0.64534808  0.85142200  0.45857609     0.05120
C1401       C  0.96737716  0.14388910  0.26784220    -0.20680
C1402       C  0.50376231  0.12360942  0.25084402    -0.07250
C1403       C  0.53934915  0.14597639  0.23430520     0.13620
C1404       C  0.53728474  0.18816650  0.23495319    -0.20730
C1405       C  0.50012418  0.20863656  0.25132019    -0.07250
C1406       C  0.96469150  0.18613573  0.26809545     0.13610
C1407       C  0.92485418  0.20619893  0.28696659    -0.24080
H1408       H  0.94034752  0.12648827  0.28058006     0.14900
H1409       H  0.56463861  0.20531778  0.22228516     0.14930
C1410       C  0.58050216  0.12558569  0.21670843    -0.24030
H1411       H  0.90253044  0.18390357  0.29989524     0.05140
H1412       H  0.89848467  0.22298479  0.27223426     0.08360
H1413       H  0.94247102  0.22714131  0.30340415     0.08360
H1414       H  0.56427444  0.10731701  0.19814138     0.08350
H1415       H  0.60264819  0.10583332  0.23192856     0.08350
H1416       H  0.60651984  0.14775925  0.20644387     0.05120
C1417       C  0.98083361  0.81041293  0.22598809    -0.20680
C1418       C  0.50038144  0.79010974  0.25102432    -0.07250
C1419       C  0.52009488  0.81225203  0.27546994     0.13620
C1420       C  0.52007767  0.85448131  0.27416257    -0.20730
C1421       C  0.50128534  0.87521412  0.24885643    -0.07250
C1422       C  0.98148531  0.85262931  0.22431568     0.13610
C1423       C  0.96014488  0.87231909  0.19644428    -0.24080
H1424       H  0.96569039  0.79298666  0.20738165     0.14900
H1425       H  0.53518207  0.87137830  0.29302924     0.14930
C1426       C  0.53971313  0.79145873  0.30332948    -0.24030
H1427       H  0.94397674  0.84989050  0.18057470     0.05140
H1428       H  0.99010334  0.88858978  0.18414711     0.08360
H1429       H  0.92985635  0.89357079  0.20279916     0.08360
H1430       H  0.57144515  0.77143864  0.29745131     0.08350
H1431       H  0.50958095  0.77313417  0.31361431     0.08350
H1432       H  0.55304260  0.81334979  0.32051845     0.05120
C1433       C  0.51980011  0.14500187  0.47793098    -0.20680
C1434       C  0.49794653  0.12467493  0.50244664    -0.07250
C1435       C  0.97595956  0.14754578  0.02606948     0.13620
C1436       C  0.97698948  0.18976787  0.02455567    -0.20730
C1437       C  0.49985555  0.20969963  0.50042768    -0.07250
C1438       C  0.52155870  0.18720471  0.47681163     0.13610
C1439       C  0.54559709  0.20764148  0.45012180    -0.24080
H1440       H  0.53643878  0.12777839  0.45972269     0.14900
H1441       H  0.96028207  0.20745913  0.04250841     0.14930
C1442       C  0.95005435  0.12807654  0.05253232    -0.24030
H1443       H  0.55923450  0.18549877  0.43321272     0.05140
H1444       H  0.57817749  0.22575225  0.45771461     0.08360
H1445       H  0.51799176  0.22767228  0.43885100     0.08360
H1446       H  0.97747524  0.11089732  0.06627178     0.08350
H1447       H  0.91999983  0.10771441  0.04432606     0.08350
H1448       H  0.93252253  0.15074115  0.06765950     0.05120
C1449       C  0.53548656  0.81189117  0.01647509    -0.20680
C1450       C  0.00101088  0.79143698  0.49810813    -0.07250
C1451       C  0.96704138  0.81381218  0.48014187     0.13620
C1452       C  0.96817729  0.85603361  0.48134686    -0.20730
C1453       C  0.00143619  0.87640518  0.50052533    -0.07250
C1454       C  0.53569836  0.85409078  0.01825378     0.13610
C1455       C  0.57315915  0.87451949  0.03863585    -0.24080
H1456       H  0.56160935  0.79468842  0.03009693     0.14900
H1457       H  0.94231461  0.87331283  0.46760062     0.14930
C1458       C  0.93055639  0.79358142  0.45898049    -0.24030
H1459       H  0.59906953  0.85252769  0.04929840     0.05140
H1460       H  0.55340521  0.89075296  0.05700106     0.08360
H1461       H  0.59593440  0.89621960  0.52549208     0.08360
H1462       H  0.90293164  0.77571033  0.97196077     0.08350
H1463       H  0.95106034  0.77356479  0.44314331     0.08350
H1464       H  0.90923761  0.81585019  0.44536225     0.05120
O1465       O  0.49832114  0.06031308  0.52702909    -0.73320
O1466       O  0.00026993  0.93960654  0.52617043    -0.74300
O1467       O  0.57348675  0.00036251  0.52681116    -0.62920
O1468       O  0.92464908  0.99953399  0.52651829    -0.71330
O1469       O  0.92445452  0.00093962  0.97633164    -0.70880
O1470       O  0.57331206  0.00031588  0.97660762    -0.62130
O1471       O  0.99864080  0.94018918  0.97605971    -0.74640
O1472       O  0.49909007  0.06112530  0.97703348    -0.73420
Cu1473     Cu  0.49913202  0.99993826  0.52838775     1.04560
Cu1474     Cu  0.99887611  0.00066884  0.97473553     1.04330
C1475       C  0.49827181  0.07992564  0.50223954     0.92880
C1476       C  0.00017056  0.92085346  0.00098337     0.92020
C1477       C  0.59678854  0.00018184  0.50171055     0.84160
C1478       C  0.90113920  0.00032933  0.50142957     0.90440
O1479       O  0.50251917  0.05997449  0.77571019    -0.73320
O1480       O  0.50288524  0.93874936  0.77455022    -0.74300
O1481       O  0.57732115  0.99944736  0.77536098    -0.62920
O1482       O  0.92856706  0.99939152  0.77538011    -0.71330
O1483       O  0.92851780  0.00067896  0.72518826    -0.70880
O1484       O  0.57746048  0.99955555  0.72516282    -0.62130
O1485       O  0.50226543  0.93982704  0.72458554    -0.74640
O1486       O  0.50398230  0.06035581  0.72558303    -0.73420
Cu1487     Cu  0.50286356  0.99935268  0.77703311     1.04560
Cu1488     Cu  0.50304095  0.00012241  0.72338610     1.04330
C1489       C  0.50360198  0.07919201  0.75071846     0.92880
C1490       C  0.50207704  0.92004101  0.74927890     0.92020
C1491       C  0.60079944  0.99952245  0.75030730     0.84160
C1492       C  0.90514858  0.00013269  0.75029146     0.90440
O1493       O  0.74748009  0.06078507  0.97687085    -0.73320
O1494       O  0.74883700  0.93989666  0.97616792    -0.74300
O1495       O  0.67425551  0.00002121  0.97652180    -0.62920
O1496       O  0.82309255  0.00072335  0.97642684    -0.71330
O1497       O  0.82359751  0.00029045  0.52663428    -0.70880
O1498       O  0.67473872  0.99954413  0.52673446    -0.62130
O1499       O  0.75022328  0.93950774  0.52631342    -0.74640
O1500       O  0.74870592  0.06029670  0.52706381    -0.73420
Cu1501     Cu  0.74847362  0.00036960  0.97471940     1.04560
Cu1502     Cu  0.74929492  0.99988724  0.52845695     1.04330
C1503       C  0.74758741  0.07946205  0.50209065     0.92880
C1504       C  0.74957725  0.92069090  0.50114631     0.92020
C1505       C  0.65111493  0.99986677  0.50167155     0.84160
C1506       C  0.84675313  0.00048611  0.50148200     0.90440
O1507       O  0.75418583  0.93995179  0.77585975    -0.73320
O1508       O  0.75165124  0.06053436  0.77535802    -0.74300
O1509       O  0.67853615  0.99942032  0.77555544    -0.62920
O1510       O  0.82747505  0.00095114  0.77545296    -0.71330
O1511       O  0.82738025  0.99959068  0.72524619    -0.70880
O1512       O  0.67862352  0.00010513  0.72534625    -0.62130
O1513       O  0.75365928  0.06026392  0.72519228    -0.74640
O1514       O  0.75280273  0.93945408  0.72565076    -0.73420
Cu1515     Cu  0.75298474  0.00024001  0.77733551     1.04560
Cu1516     Cu  0.75308316  0.99984438  0.72358083     1.04330
C1517       C  0.75367841  0.92082473  0.75085752     0.92880
C1518       C  0.75272182  0.07934694  0.75023796     0.92020
C1519       C  0.65517581  0.99966542  0.75041264     0.84160
C1520       C  0.85081265  0.00026431  0.75033600     0.90440
O1521       O  0.54334282  0.66827404  0.54480120    -0.73320
O1522       O  0.54156289  0.66587235  0.95463811    -0.74300
O1523       O  0.54267417  0.72776733  0.99898226    -0.62920
O1524       O  0.54106780  0.60665794  0.00034161    -0.71330
O1525       O  0.95825417  0.60771932  0.00088596    -0.70880
O1526       O  0.95964720  0.72793696  0.99899676    -0.62130
O1527       O  0.95856705  0.66649599  0.95476665    -0.74640
O1528       O  0.96049013  0.66912799  0.54543722    -0.73420
Cu1529     Cu  0.54506665  0.66714413  0.99969043     1.04560
Cu1530     Cu  0.95635661  0.66786754  0.00007722     1.04330
C1531       C  0.00235925  0.66915469  0.55951998     0.92880
C1532       C  0.00002389  0.66538940  0.94039739     0.92020
C1533       C  0.00112280  0.74692917  0.99851628     0.84160
C1534       C  0.99920044  0.58795389  0.00048576     0.90440
O1535       O  0.95836798  0.66604538  0.70505619    -0.73320
O1536       O  0.95695046  0.66733031  0.79511127    -0.74300
O1537       O  0.95824772  0.72710711  0.74961026    -0.62920
O1538       O  0.95785832  0.60612340  0.75058185    -0.71330
O1539       O  0.54081387  0.60586645  0.74983743    -0.70880
O1540       O  0.54135608  0.72657640  0.75157705    -0.62130
O1541       O  0.53988912  0.66530614  0.79594096    -0.74640
O1542       O  0.54120132  0.66711528  0.70508565    -0.73420
Cu1543     Cu  0.95500755  0.66664812  0.75005575     1.04560
Cu1544     Cu  0.54377638  0.66621133  0.75060061     1.04330
C1545       C  0.49965879  0.66638640  0.69065094     0.92880
C1546       C  0.49798410  0.66656710  0.80985470     0.92020
C1547       C  0.49996963  0.74580885  0.75087923     0.84160
C1548       C  0.49927988  0.58683983  0.75040487     0.90440
O1549       O  0.70715336  0.66885148  0.95846216    -0.73320
O1550       O  0.70896591  0.66670472  0.54882058    -0.74300
O1551       O  0.70999815  0.72831151  0.50418982    -0.62920
O1552       O  0.70671048  0.60750268  0.50280873    -0.71330
O1553       O  0.78962823  0.60616696  0.50311167    -0.70880
O1554       O  0.79294553  0.72682943  0.50336868    -0.62130
O1555       O  0.79203482  0.66652060  0.54868241    -0.74640
O1556       O  0.79004168  0.66656702  0.95777047    -0.73420
Cu1557     Cu  0.70535003  0.66792046  0.50362357     1.04560
Cu1558     Cu  0.79409657  0.66647229  0.50322213     1.04330
C1559       C  0.74816715  0.66801998  0.94374375     0.92880
C1560       C  0.75056178  0.66612148  0.56304660     0.92020
C1561       C  0.75202801  0.74670669  0.50388098     0.84160
C1562       C  0.74769087  0.58766917  0.50261146     0.90440
O1563       O  0.79120909  0.66627749  0.79851097    -0.73320
O1564       O  0.79211352  0.66806340  0.70810240    -0.74300
O1565       O  0.79102150  0.72770960  0.75368472    -0.62920
O1566       O  0.79131047  0.60661422  0.75289819    -0.71330
O1567       O  0.70853226  0.60681054  0.75308869    -0.70880
O1568       O  0.70836383  0.72697347  0.75278330    -0.62130
O1569       O  0.70909300  0.66664083  0.70753749    -0.74640
O1570       O  0.70826961  0.66693455  0.79842409    -0.73420
Cu1571     Cu  0.79431324  0.66716631  0.75332027     1.04560
Cu1572     Cu  0.70569749  0.66685956  0.75295562     1.04330
C1573       C  0.74978726  0.66603069  0.81283245     0.92880
C1574       C  0.75087056  0.66779164  0.69351794     0.92020
C1575       C  0.74931958  0.74667926  0.75300832     0.84160
C1576       C  0.74976889  0.58744647  0.75318004     0.90440
O1577       O  0.96031534  0.33385636  0.54602316    -0.73320
O1578       O  0.95875561  0.33322667  0.95553444    -0.74300
O1579       O  0.95882707  0.27321908  0.00116557    -0.62920
O1580       O  0.96066293  0.39416770  0.00059999    -0.71330
O1581       O  0.54345740  0.39312385  0.00003675    -0.70880
O1582       O  0.54196630  0.27266688  0.99992402    -0.62130
O1583       O  0.54157833  0.33274495  0.95484773    -0.74640
O1584       O  0.54336496  0.33325949  0.54542515    -0.73420
Cu1585     Cu  0.95671725  0.33366234  0.00083011     1.04560
Cu1586     Cu  0.54546542  0.33291482  0.50005799     1.04330
C1587       C  0.50214389  0.33384800  0.56002475     0.92880
C1588       C  0.49976778  0.33268776  0.94076559     0.92020
C1589       C  0.50023972  0.25398259  0.00041215     0.84160
C1590       C  0.50249812  0.41289859  0.00044715     0.90440
O1591       O  0.54257281  0.33191595  0.70432371    -0.73320
O1592       O  0.54494240  0.33255564  0.79476203    -0.74300
O1593       O  0.54236117  0.27183008  0.74977428    -0.62920
O1594       O  0.54525388  0.39262898  0.74921727    -0.71330
O1595       O  0.96229883  0.39374657  0.74983852    -0.70880
O1596       O  0.95943481  0.27293520  0.75121861    -0.62130
O1597       O  0.96213093  0.33416493  0.79559043    -0.74640
O1598       O  0.95952413  0.33208298  0.70512018    -0.73420
Cu1599     Cu  0.54667075  0.33218630  0.74948651     1.04560
Cu1600     Cu  0.95794592  0.33331328  0.75043568     1.04330
C1601       C  0.50063345  0.33152831  0.69043448     0.92880
C1602       C  0.50400070  0.33356887  0.80958922     0.92020
C1603       C  0.50051187  0.25324983  0.75088365     0.84160
C1604       C  0.50419061  0.41234283  0.74937830     0.90440
O1605       O  0.79049328  0.33345142  0.95679095    -0.73320
O1606       O  0.79101869  0.33318207  0.54752832    -0.74300
O1607       O  0.79091588  0.27329267  0.50201714    -0.62920
O1608       O  0.79165498  0.39346885  0.50231819    -0.71330
O1609       O  0.70874935  0.39413731  0.50198484    -0.70880
O1610       O  0.70817226  0.27271144  0.50243480    -0.62130
O1611       O  0.70810887  0.33355230  0.54730161    -0.74640
O1612       O  0.70756339  0.33296176  0.95711203    -0.73420
Cu1613     Cu  0.79387812  0.33335890  0.50214394     1.04560
Cu1614     Cu  0.70523512  0.33340129  0.50220005     1.04330
C1615       C  0.74876421  0.33280659  0.94259725     0.92880
C1616       C  0.74941090  0.33297994  0.56178657     0.92020
C1617       C  0.74988279  0.25370905  0.50244275     0.84160
C1618       C  0.75052883  0.41299329  0.50234098     0.90440
O1619       O  0.71103296  0.33319915  0.79756514    -0.73320
O1620       O  0.71149337  0.33386574  0.70685772    -0.74300
O1621       O  0.70923765  0.27328939  0.75198418    -0.62920
O1622       O  0.71288578  0.39376742  0.75246887    -0.71330
O1623       O  0.79565660  0.39236691  0.75274902    -0.70880
O1624       O  0.79210427  0.27165450  0.75197483    -0.62130
O1625       O  0.79439993  0.33265296  0.70720858    -0.74640
O1626       O  0.79396483  0.33173505  0.79747463    -0.73420
Cu1627     Cu  0.70824757  0.33356832  0.75220775     1.04560
Cu1628     Cu  0.79688814  0.33200142  0.75235875     1.04330
C1629       C  0.75264257  0.33274077  0.81186925     0.92880
C1630       C  0.75315568  0.33372840  0.69266466     0.92020
C1631       C  0.75004802  0.25328320  0.75203534     0.84160
C1632       C  0.75479194  0.41232806  0.75262004     0.90440
C1633       C  0.71385732  0.31297824  0.86041876    -0.20680
C1634       C  0.75269546  0.33300287  0.84531140    -0.07250
C1635       C  0.78994298  0.35312734  0.86239741     0.13620
C1636       C  0.78727929  0.35247901  0.89401443    -0.20730
C1637       C  0.74849280  0.33243655  0.90914390    -0.07250
C1638       C  0.71117281  0.31234039  0.89205834     0.13610
C1639       C  0.66930966  0.28904090  0.90677247    -0.24080
H1640       H  0.68570073  0.29719453  0.84733456     0.14900
H1641       H  0.81546336  0.36827382  0.90706694     0.14930
C1642       C  0.83172311  0.37650311  0.84768276    -0.24030
H1643       H  0.64548187  0.27342324  0.88985065     0.05140
H1644       H  0.64466222  0.30972969  0.91963719     0.08360
H1645       H  0.68507247  0.26586262  0.92215924     0.08360
H1646       H  0.81587424  0.39959833  0.83225770     0.08350
H1647       H  0.85647523  0.35584372  0.83486622     0.08350
H1648       H  0.85545281  0.39222616  0.86459839     0.05120
C1649       C  0.78920060  0.35147166  0.61042608    -0.20680
C1650       C  0.74935107  0.33268608  0.59527360    -0.07250
C1651       C  0.71096142  0.31410673  0.61238757     0.13620
C1652       C  0.71341569  0.31526869  0.64402467    -0.20730
C1653       C  0.75325561  0.33406148  0.65917715    -0.07250
C1654       C  0.79158900  0.35269383  0.64206687     0.13610
C1655       C  0.83393329  0.37556519  0.65671896    -0.24080
H1656       H  0.81835641  0.36599692  0.59737574     0.14900
H1657       H  0.68422654  0.30079319  0.65707709     0.14930
C1658       C  0.66826320  0.29159135  0.59775564    -0.24030
H1659       H  0.85857858  0.39012236  0.63975479     0.05140
H1660       H  0.85767943  0.35499115  0.67024570     0.08360
H1661       H  0.81845998  0.39956627  0.67144121     0.08360
H1662       H  0.68321389  0.26769439  0.58270041     0.08350
H1663       H  0.64447891  0.31253048  0.58456520     0.08350
H1664       H  0.64373399  0.27693685  0.61473491     0.05120
C1665       C  0.54240482  0.34662858  0.89215247    -0.20680
C1666       C  0.49952218  0.33256749  0.90717269    -0.07250
C1667       C  0.95844348  0.31853478  0.88978519     0.13620
C1668       C  0.96154252  0.31923194  0.85816372    -0.20730
C1669       C  0.50436388  0.33342163  0.84315940    -0.07250
C1670       C  0.54550757  0.34730326  0.86053227     0.13610
C1671       C  0.59240718  0.36391159  0.84625733    -0.24080
H1672       H  0.57376295  0.35772773  0.90528295     0.14900
H1673       H  0.93021972  0.30809779  0.84501073     0.14930
C1674       C  0.91159898  0.30177840  0.90402793    -0.24030
H1675       H  0.61944349  0.37504213  0.86342182     0.05140
H1676       H  0.58278979  0.38953224  0.83122666     0.08360
H1677       H  0.61163334  0.34001905  0.83314922     0.08360
H1678       H  0.89218632  0.32562134  0.91708710     0.08350
H1679       H  0.92133421  0.27621023  0.91908367     0.08350
H1680       H  0.88467113  0.29051914  0.88684615     0.05120
C1681       C  0.96867671  0.30848003  0.60849520    -0.20680
C1682       C  0.50247041  0.33375185  0.59339005    -0.07250
C1683       C  0.53511316  0.35850225  0.61037517     0.13620
C1684       C  0.53392202  0.35659367  0.64199012    -0.20730
C1685       C  0.50011713  0.33139519  0.65709666    -0.07250
C1686       C  0.96721282  0.30678788  0.64015557     0.13610
C1687       C  0.93223364  0.27735043  0.65516967    -0.24080
H1688       H  0.94381959  0.28944231  0.59539982     0.14900
H1689       H  0.55870805  0.37571313  0.65507052     0.14930
C1690       C  0.56888153  0.38885823  0.59548402    -0.24030
H1691       H  0.91132645  0.25904875  0.63836204     0.05140
H1692       H  0.90429720  0.29355527  0.66910098     0.08360
H1693       H  0.95397067  0.25644051  0.66971920     0.08360
H1694       H  0.54573692  0.40982072  0.58184832     0.08350
H1695       H  0.59662791  0.37366058  0.58079553     0.08350
H1696       H  0.58999427  0.40697382  0.61231091     0.05120
C1697       C  0.71111109  0.47717315  0.76164086    -0.20680
C1698       C  0.75517685  0.45716499  0.75292178    -0.07250
C1699       C  0.79737318  0.48043822  0.74441655     0.13620
C1700       C  0.79397487  0.52260855  0.74474309    -0.20730
C1701       C  0.74985931  0.54260853  0.75335820    -0.07250
C1702       C  0.70772530  0.51931702  0.76205378     0.13610
C1703       C  0.65915206  0.53805299  0.77239213    -0.24080
H1704       H  0.67882942  0.45966121  0.76845507     0.14900
H1705       H  0.82616002  0.54013447  0.73781561     0.14930
C1706       C  0.84594192  0.46159019  0.73432225    -0.24030
H1707       H  0.63144486  0.51501456  0.77951462     0.05140
H1708       H  0.64187842  0.55535231  0.75365930     0.08360
H1709       H  0.66609927  0.55811309  0.79202430     0.08360
H1710       H  0.83922098  0.44174147  0.71458801     0.08350
H1711       H  0.86258720  0.44396897  0.75307903     0.08350
H1712       H  0.87390826  0.48456360  0.72747716     0.05120
C1713       C  0.78648491  0.52254239  0.51669275    -0.20680
C1714       C  0.74717702  0.54299162  0.50222664    -0.07250
C1715       C  0.70950512  0.52040045  0.48736095     0.13620
C1716       C  0.71213292  0.47816835  0.48765904    -0.20730
C1717       C  0.75108236  0.45770352  0.50245016    -0.07250
C1718       C  0.78907653  0.48034045  0.51703422     0.13610
C1719       C  0.83184259  0.46059725  0.53371956    -0.24080
H1720       H  0.81523706  0.53977060  0.52817889     0.14900
H1721       H  0.68387675  0.46093500  0.97577334     0.14930
C1722       C  0.66736083  0.54029108  0.97022577    -0.24030
H1723       H  0.85626472  0.48307532  0.54506077     0.05140
H1724       H  0.85569749  0.44351538  0.01771634     0.08360
H1725       H  0.81702029  0.44002739  0.55132133     0.08360
H1726       H  0.68284013  0.56060579  0.95266438     0.08350
H1727       H  0.64339774  0.55776593  0.48590303     0.08350
H1728       H  0.64295013  0.51787830  0.95880559     0.05120
C1729       C  0.78442254  0.64579003  0.89499348    -0.20680
C1730       C  0.74739124  0.66786656  0.91024225    -0.07250
C1731       C  0.71077721  0.68889593  0.89321930     0.13620
C1732       C  0.71242853  0.68725870  0.86154581    -0.20730
C1733       C  0.74973083  0.66547545  0.84631660    -0.07250
C1734       C  0.78579109  0.64386449  0.86333233     0.13610
C1735       C  0.82423081  0.61701719  0.84851739    -0.24080
H1736       H  0.81197683  0.62919248  0.90799404     0.14900
H1737       H  0.68482508  0.70377269  0.84852358     0.14930
C1738       C  0.67111389  0.71455257  0.90802726    -0.24030
H1739       H  0.84707308  0.60046887  0.86542918     0.05140
H1740       H  0.85037748  0.63500182  0.83463885     0.08360
H1741       H  0.80517234  0.59443111  0.83401197     0.08360
H1742       H  0.68903593  0.73748856  0.92274904     0.08350
H1743       H  0.64558706  0.69559748  0.92164797     0.08350
H1744       H  0.64776012  0.73064567  0.89112213     0.05120
C1745       C  0.78180077  0.69274832  0.61181935    -0.20680
C1746       C  0.75065587  0.66561827  0.59640526    -0.07250
C1747       C  0.71991944  0.63903178  0.61305802     0.13620
C1748       C  0.72043284  0.64085106  0.64472472    -0.20730
C1749       C  0.75143353  0.66805651  0.66015350    -0.07250
C1750       C  0.78224802  0.69461833  0.64350631     0.13610
C1751       C  0.81361293  0.72636844  0.65888877    -0.24080
H1752       H  0.80500531  0.71326317  0.59894543     0.14900
H1753       H  0.69718155  0.62034990  0.65757874     0.14930
C1754       C  0.68835877  0.60741143  0.59767802    -0.24030
H1755       H  0.83315899  0.74585795  0.64229758     0.05140
H1756       H  0.84258404  0.71220354  0.67332473     0.08360
H1757       H  0.78931336  0.74588745  0.67303252     0.08360
H1758       H  0.71247012  0.58798705  0.58334437     0.08350
H1759       H  0.65921559  0.62172561  0.58345318     0.08350
H1760       H  0.66899444  0.58780155  0.61426597     0.05120
C1761       C  0.96756926  0.47702668  0.76636851    -0.20680
C1762       C  0.50461433  0.45699938  0.74963268    -0.07250
C1763       C  0.54021122  0.47996668  0.73341983     0.13620
C1764       C  0.53718576  0.52218631  0.73410696    -0.20730
C1765       C  0.49966801  0.54218847  0.75051449    -0.07250
C1766       C  0.96455043  0.51921615  0.76707730     0.13610
C1767       C  0.92488250  0.53872527  0.78641289    -0.24080
H1768       H  0.94106043  0.45946101  0.77934556     0.14900
H1769       H  0.56403781  0.53976679  0.72138608     0.14930
C1770       C  0.58054467  0.46043548  0.71461746    -0.24030
H1771       H  0.90261666  0.51607510  0.79902861     0.05140
H1772       H  0.89842125  0.55601067  0.77210684     0.08360
H1773       H  0.94267867  0.55916211  0.80313294     0.08360
H1774       H  0.56335891  0.43994769  0.69770281     0.08350
H1775       H  0.60651384  0.44322817  0.72932528     0.08350
H1776       H  0.60321809  0.48307482  0.70225711     0.05120
C1777       C  0.54151155  0.52285100  0.51058580    -0.20680
C1778       C  0.99860842  0.54316372  0.00037118    -0.07250
C1779       C  0.95725207  0.52025788  0.98986201     0.13620
C1780       C  0.96004667  0.47804886  0.99026871    -0.20730
C1781       C  0.50301135  0.45772592  0.00047645    -0.07250
C1782       C  0.54459319  0.48068610  0.51058135     0.13610
C1783       C  0.59227957  0.46151461  0.52185832    -0.24080
H1784       H  0.57301871  0.54015584  0.51890384     0.14900
H1785       H  0.92842869  0.46074047  0.98208649     0.14930
C1786       C  0.91043526  0.53957801  0.97737344    -0.24030
H1787       H  0.61981435  0.48425154  0.52979071     0.05140
H1788       H  0.61022217  0.44419548  0.00341493     0.08360
H1789       H  0.58409907  0.44125122  0.54104820     0.08360
H1790       H  0.92017593  0.55971133  0.95825726     0.08350
H1791       H  0.89116227  0.55697897  0.49531063     0.08350
H1792       H  0.88336089  0.51685747  0.96884765     0.05120
C1793       C  0.96275725  0.68654729  0.89180323    -0.20680
C1794       C  0.49976298  0.66445554  0.90702912    -0.07250
C1795       C  0.53538568  0.64230111  0.89014647     0.13620
C1796       C  0.53386240  0.64396279  0.85851304    -0.20730
C1797       C  0.49716800  0.66641028  0.84325749    -0.07250
C1798       C  0.96093312  0.68794103  0.86017361     0.13610
C1799       C  0.92140188  0.71375803  0.84534287    -0.24080
H1800       H  0.93554861  0.70348801  0.90479762     0.14900
H1801       H  0.56108161  0.62699647  0.84554822     0.14930
C1802       C  0.57363489  0.61537856  0.90509962    -0.24030
H1803       H  0.89828992  0.73007751  0.86222532     0.05140
H1804       H  0.89566373  0.69494969  0.83172390     0.08360
H1805       H  0.93926832  0.73648877  0.83056274     0.08360
H1806       H  0.55446843  0.59326124  0.91990000     0.08350
H1807       H  0.60025628  0.63345947  0.91867993     0.08350
H1808       H  0.59596760  0.59827238  0.88827194     0.05120
C1809       C  0.96148290  0.65274292  0.60812429    -0.20680
C1810       C  0.50292642  0.66914399  0.59307105    -0.07250
C1811       C  0.54332189  0.68464306  0.61035804     0.13620
C1812       C  0.54102974  0.68296459  0.64201543    -0.20730
C1813       C  0.49950816  0.66657402  0.65707116    -0.07250
C1814       C  0.95919817  0.65098232  0.63972939     0.13610
C1815       C  0.91425401  0.63108204  0.65396754    -0.24080
H1816       H  0.93074071  0.64053195  0.59500075     0.14900
H1817       H  0.57178536  0.69513639  0.65514520     0.14930
C1818       C  0.58826932  0.70428608  0.59594703    -0.24030
H1819       H  0.88822027  0.61858617  0.63676944     0.05140
H1820       H  0.89273059  0.65324490  0.66742002     0.08360
H1821       H  0.92659887  0.60584443  0.66863737     0.08360
H1822       H  0.57597002  0.72957012  0.58130466     0.08350
H1823       H  0.60941261  0.68200262  0.58237494     0.08550
H1824       H  0.61456604  0.71662021  0.61306499     0.05120
C1825       C  0.71191793  0.14357148  0.76366360    -0.20680
C1826       C  0.75239521  0.12361505  0.75027164    -0.07250
C1827       C  0.79205486  0.14605964  0.73778291     0.13620
C1828       C  0.79006619  0.18822958  0.73879477    -0.20730
C1829       C  0.74914149  0.20858517  0.75172035    -0.07250
C1830       C  0.70938616  0.18578938  0.76435883     0.13610
C1831       C  0.66479069  0.20529224  0.77931187    -0.24080
H1832       H  0.68183148  0.12590899  0.77335622     0.14900
H1833       H  0.82065501  0.20540479  0.72921357     0.14930
C1834       C  0.83718770  0.12561900  0.72423717    -0.24030
H1835       H  0.63911455  0.18263280  0.78929739     0.05140
H1836       H  0.64286903  0.22264878  0.76245849     0.08360
H1837       H  0.67751112  0.22552453  0.79776557     0.08360
H1838       H  0.82573362  0.10716823  0.70450575     0.08350
H1839       H  0.85518577  0.10591241  0.74135805     0.08350
H1840       H  0.86551923  0.14775566  0.71644202     0.05120
C1841       C  0.79515254  0.81203679  0.75404984    -0.20680
C1842       C  0.74892079  0.79164296  0.75235084    -0.07250
C1843       C  0.70415973  0.81482174  0.74981444     0.13620
C1844       C  0.70721586  0.85699539  0.74927869    -0.20730
C1845       C  0.75326932  0.87668751  0.75115634    -0.07250
C1846       C  0.79776738  0.85422328  0.75351628     0.13610
C1847       C  0.84793476  0.87484924  0.75530475    -0.24080
H1848       H  0.82965205  0.79501518  0.75586255     0.14900
H1849       H  0.67334904  0.87489203  0.74746821     0.14930
C1850       C  0.65284844  0.79609425  0.74755849    -0.24030
H1851       H  0.87920019  0.85284898  0.75673005     0.05140
H1852       H  0.84941883  0.89440819  0.77562706     0.08360
H1853       H  0.85360815  0.89367204  0.73489885     0.08360
H1854       H  0.64516983  0.77811196  0.76811090     0.08350
H1855       H  0.65049242  0.77674517  0.72715592     0.08350
H1856       H  0.62282656  0.81913796  0.74569577     0.05120
C1857       C  0.70618480  0.18817104  0.99501202    -0.20680
C1858       C  0.75044278  0.20881668  0.50274969    -0.07250
C1859       C  0.79359154  0.18600110  0.51080330     0.13620
C1860       C  0.79109494  0.14378196  0.51066106    -0.20730
C1861       C  0.74724157  0.12369314  0.50240812    -0.07250
C1862       C  0.70418000  0.14591939  0.99467308     0.13610
C1863       C  0.65591518  0.12505637  0.98660500    -0.24080
H1864       H  0.67294349  0.20509489  0.98895485     0.14900
H1865       H  0.82383323  0.12617532  0.51670544     0.14930
C1866       C  0.84237420  0.20526767  0.52006608    -0.24030
H1867       H  0.62580701  0.14704455  0.98147800     0.05140
H1868       H  0.64340853  0.10601808  0.50576731     0.08360
H1869       H  0.66143165  0.10581080  0.96638110     0.08360
H1870       H  0.83631024  0.22561886  0.53962489     0.08350
H1871       H  0.85859724  0.22222158  0.00084007     0.08350
H1872       H  0.87041630  0.18243137  0.52699481     0.05120
C1873       C  0.78748683  0.85641463  0.51765547    -0.20680
C1874       C  0.75015201  0.87629712  0.50110513    -0.07250
C1875       C  0.71355870  0.85359466  0.48561025     0.13620
C1876       C  0.71500083  0.81142289  0.48728220    -0.20730
C1877       C  0.75285381  0.79131569  0.50339700    -0.07250
C1878       C  0.78982511  0.81418736  0.51870252     0.13610
C1879       C  0.83088950  0.79459236  0.53694029    -0.24080
H1880       H  0.81533459  0.87411867  0.52956023     0.14900
H1881       H  0.68673439  0.79398841  0.47552145     0.14930
C1882       C  0.67227582  0.87368590  0.46790359    -0.24030
H1883       H  0.85454169  0.81722962  0.54868700     0.05140
H1884       H  0.85582543  0.77687900  0.02195361     0.08360
H1885       H  0.81434613  0.77457320  0.55433669     0.08360
H1886       H  0.68839814  0.89070627  0.94869521     0.08350
H1887       H  0.65125487  0.89470528  0.48268088     0.08350
H1888       H  0.64534818  0.85142198  0.95857603     0.05120
C1889       C  0.96737717  0.14388911  0.76784219    -0.20680
C1890       C  0.50376232  0.12360943  0.75084403    -0.07250
C1891       C  0.53934918  0.14597639  0.73430521     0.13620
C1892       C  0.53728477  0.18816650  0.73495320    -0.20730
C1893       C  0.50012420  0.20863656  0.75132020    -0.07250
C1894       C  0.96469150  0.18613573  0.76809545     0.13610
C1895       C  0.92485416  0.20619893  0.78696657    -0.24080
H1896       H  0.94034752  0.12648827  0.78058005     0.14900
H1897       H  0.56463865  0.20531778  0.72228517     0.14930
C1898       C  0.58050219  0.12558568  0.71670845    -0.24030
H1899       H  0.90253042  0.18390357  0.79989522     0.05140
H1900       H  0.89848466  0.22298479  0.77223424     0.08360
H1901       H  0.94247098  0.22714132  0.80340414     0.08360
H1902       H  0.56427447  0.10731701  0.69814139     0.08350
H1903       H  0.60264821  0.10583331  0.73192858     0.08350
H1904       H  0.60651988  0.14775925  0.70644389     0.05120
C1905       C  0.98083352  0.81041294  0.72598811    -0.20680
C1906       C  0.50038138  0.79010974  0.75102433    -0.07250
C1907       C  0.52009485  0.81225204  0.77546995     0.13620
C1908       C  0.52007766  0.85448131  0.77416257    -0.20730
C1909       C  0.50128531  0.87521413  0.74885643    -0.07250
C1910       C  0.98148526  0.85262932  0.72431568     0.13610
C1911       C  0.96014484  0.87231910  0.69644428    -0.24080
H1912       H  0.96569028  0.79298668  0.70738167     0.14900
H1913       H  0.53518208  0.87137831  0.79302923     0.14930
C1914       C  0.53971314  0.79145873  0.80332947    -0.24030
H1915       H  0.94397668  0.84989052  0.68057470     0.05140
H1916       H  0.99010331  0.88858977  0.68414711     0.08360
H1917       H  0.92985633  0.89357083  0.70279915     0.08360
H1918       H  0.57144515  0.77143864  0.79745129     0.08350
H1919       H  0.50958098  0.77313419  0.81361432     0.08350
H1920       H  0.55304264  0.81334980  0.82051844     0.05120
C1921       C  0.51980012  0.14500189  0.97793099    -0.20680
C1922       C  0.49794654  0.12467495  0.00244664    -0.07250
C1923       C  0.97595952  0.14754576  0.52606948     0.13620
C1924       C  0.97698943  0.18976784  0.52455567    -0.20730
C1925       C  0.49985555  0.20969965  0.00042768    -0.07250
C1926       C  0.52155871  0.18720473  0.97681163     0.13610
C1927       C  0.54559711  0.20764151  0.95012181    -0.24080
H1928       H  0.53643880  0.12777842  0.95972269     0.14900
H1929       H  0.96028201  0.20745910  0.54250840     0.14930
C1930       C  0.95005432  0.12807652  0.55253232    -0.24030
H1931       H  0.55923453  0.18549879  0.93321273     0.05140
H1932       H  0.57817750  0.22575228  0.95771462     0.08360
H1933       H  0.51799178  0.22767231  0.93885101     0.08360
H1934       H  0.97747521  0.11089729  0.56627178     0.08350
H1935       H  0.91999980  0.10771438  0.54432606     0.08350
H1936       H  0.93252249  0.15074112  0.56765950     0.05120
C1937       C  0.53548674  0.81189117  0.51647508    -0.20680
C1938       C  0.00101063  0.79143700  0.99810815    -0.07250
C1939       C  0.96704114  0.81381222  0.98014190     0.13620
C1940       C  0.96817710  0.85603365  0.98134688    -0.20730
C1941       C  0.00143605  0.87640520  0.00052534    -0.07250
C1942       C  0.53569849  0.85409078  0.51825378     0.13610
C1943       C  0.57315923  0.87451951  0.53863587    -0.24080
H1944       H  0.56160954  0.79468843  0.53009693     0.14900
H1945       H  0.94231442  0.87331289  0.96760066     0.14930
C1946       C  0.93055610  0.79358149  0.95898054    -0.24030
H1947       H  0.59906963  0.85252773  0.54929842     0.05140
H1948       H  0.55340524  0.89075296  0.55700107     0.08360
H1949       H  0.59593434  0.89621955  0.02549204     0.08360
H1950       H  0.90293192  0.77571026  0.47196072     0.08350
H1951       H  0.95106002  0.77356485  0.94314335     0.08350
H1952       H  0.90923732  0.81585027  0.94536231     0.05120
loop_ 
_geom_bond_atom_site_label_1 
_geom_bond_atom_site_label_2 
_geom_bond_distance 
_geom_bond_site_symmetry_2 
_ccdc_geom_bond_type 
O1           Cu9   2.006   1_545  S
O1           C11   1.277       .  A
O2         Cu985   2.006       .  S
O2          C500   1.277       .  A
O3           Cu9   1.988   1_445  S
O3           C13   1.275       .  A
O4         Cu985   1.991       .  S
O4           C14   1.276   1_565  A
O5          Cu10   1.989       .  S
O5          C502   1.275       .  A
O6         Cu986   1.990   1_455  S
O6          C501   1.276       .  A
O7          Cu10   2.009   1_565  S
O7           C12   1.278       .  A
O8         Cu986   2.010       .  S
O8          C499   1.279       .  A
Cu9         O978   2.006   1_655  S
Cu9         O980   1.991       .  S
Cu9       Cu1474   2.376   1_564  S
Cu10        O982   1.990       .  S
Cu10        O984   2.010       .  S
Cu10      Cu1473   2.376   1_545  S
C11         O496   1.279   1_554  A
C11         C946   1.486       .  S
C12         O490   1.277       .  A
C12         C477   1.477       .  S
C13         O494   1.276   1_554  A
C13          C41   1.451   1_545  S
C14         O493   1.275   1_554  A
C14          C42   1.453       .  S
O15         Cu23   2.014   1_545  S
O15          C25   1.278       .  A
O16         Cu23   2.015       .  S
O16          C26   1.280       .  A
O17         Cu23   1.990       .  S
O17          C27   1.275       .  A
O18        Cu999   1.986       .  S
O18          C28   1.275   1_565  A
O19       Cu1000   1.993       .  S
O19          C28   1.276       .  A
O20         Cu24   1.989   1_565  S
O20          C27   1.275       .  A
O21         Cu24   2.003   1_565  S
O21          C26   1.276       .  A
O22         Cu24   2.003       .  S
O22          C25   1.277       .  A
Cu23        O994   1.986   1_455  S
Cu23        Cu24   2.376   1_565  S
Cu24        O995   1.993   1_455  S
C25         C426   1.475       .  S
C26         C445   1.489       .  S
C27          C55   1.453       .  S
C28          C56   1.451       .  S
O29         Cu37   2.009       .  S
O29         C527   1.277       .  A
O30         Cu37   2.009   1_565  S
O30         C528   1.278       .  A
O31         Cu37   1.984       .  S
O31         C529   1.275   1_545  A
O32         Cu37   1.995       .  S
O32         C530   1.276       .  A
O33         Cu38   1.987   1_545  S
O33          C42   1.275       .  A
O34         Cu38   1.993       .  S
O34          C41   1.276       .  A
O35         Cu38   2.007       .  S
O35          C40   1.277       .  A
O36         Cu38   2.007   1_545  S
O36          C39   1.277       .  A
Cu37       Cu526   2.380   1_545  S
Cu38       Cu525   2.380   1_564  S
C39         O517   1.277   1_554  A
C39         C397   1.469       .  S
C40         O518   1.278   1_554  A
C40         C410   1.474       .  S
C41         O519   1.275   1_564  A
C42         O520   1.276   1_554  A
O43         Cu51   2.003   1_565  S
O43          C53   1.276       .  A
O44         Cu51   2.005       .  S
O44          C54   1.277       .  A
O45         Cu51   1.990   1_565  S
O45          C55   1.276       .  A
O46         Cu51   1.992       .  S
O46          C56   1.276       .  A
O47         Cu52   1.986       .  S
O47          C56   1.275   1_565  A
O48         Cu52   1.991   1_545  S
O48          C55   1.276   1_545  A
O49         Cu52   2.008   1_545  S
O49          C54   1.277       .  A
O50         Cu52   2.008       .  S
O50          C53   1.277       .  A
Cu51        Cu52   2.381   1_545  S
C53         C381   1.466       .  S
C54         C362   1.470       .  S
O57        Cu553   1.999   1_554  S
O57        C1043   1.275       .  A
O58         Cu65   1.998       .  S
O58        C1044   1.276       .  A
O59         Cu65   2.014       .  S
O59        C1045   1.279       .  A
O60         Cu65   2.012       .  S
O60        C1046   1.280   1_455  A
O61         Cu66   1.998       .  S
O61          C70   1.275       .  A
O62         Cu66   1.997       .  S
O62          C69   1.276       .  A
O63         Cu66   2.008       .  S
O63          C68   1.279       .  A
O64        Cu554   2.012       .  S
O64          C67   1.280       .  A
Cu65        O545   1.999       .  S
Cu65      Cu1042   2.370   1_455  S
Cu66        O552   2.012       .  S
Cu66      Cu1041   2.370       .  S
C67        O1033   1.275       .  A
C67        C1322   1.486       .  S
C68        O1034   1.276       .  A
C68        C1306   1.478       .  S
C69        O1035   1.279       .  A
C69         C474   1.478       .  S
C70        O1036   1.280       .  A
C70         C314   1.488       .  S
O71         Cu79   1.995       .  S
O71        C1057   1.275       .  A
O72         Cu79   1.996       .  S
O72        C1058   1.275       .  A
O73         Cu79   2.010       .  S
O73        C1059   1.278       .  A
O74         Cu79   2.011       .  S
O74        C1060   1.278       .  A
O75         Cu80   2.006       .  S
O75          C84   1.278   1_455  A
O76         Cu80   2.006       .  S
O76          C83   1.277   1_455  A
O77         Cu80   2.011       .  S
O77          C82   1.279   1_455  A
O78         Cu80   2.017       .  S
O78          C81   1.280   1_455  A
Cu79      Cu1056   2.371       .  S
Cu80      Cu1055   2.371   1_455  S
C81        O1047   1.275       .  A
C81         C349   1.487       .  S
C82        O1048   1.275       .  A
C82         C333   1.480       .  S
C83        O1049   1.278       .  A
C83         C442   1.471   1_655  S
C84        O1050   1.278       .  A
C84         C301   1.483       .  S
O85        Cu581   2.001       .  S
O85          C95   1.276       .  A
O86         Cu93   2.004       .  S
O86          C96   1.277       .  A
O87         Cu93   2.010       .  S
O87          C97   1.279       .  A
O88         Cu93   2.007       .  S
O88          C98   1.277       .  A
O89         Cu94   2.006       .  S
O89          C98   1.278       .  A
O90         Cu94   2.005       .  S
O90          C97   1.277       .  A
O91         Cu94   2.014       .  S
O91          C96   1.278       .  A
O92        Cu582   2.016       .  S
O92          C95   1.280       .  A
Cu93        O573   2.001   1_554  S
Cu93        Cu94   2.371       .  S
Cu94        O580   2.016   1_554  S
C95         C266   1.484       .  S
C96         C282   1.478       .  S
C97         C413   1.482       .  S
C98         C250   1.484       .  S
O99        Cu107   2.004       .  S
O99         C109   1.276       .  A
O100       Cu107   2.004       .  S
O100        C110   1.276       .  A
O101       Cu107   2.012       .  S
O101        C111   1.280       .  A
O102       Cu107   2.013       .  S
O102        C112   1.280       .  A
O103       Cu108   1.996       .  S
O103        C112   1.275       .  A
O104       Cu108   1.998       .  S
O104        C111   1.275       .  A
O105       Cu108   2.014       .  S
O105        C110   1.279       .  A
O106       Cu108   2.015       .  S
O106        C109   1.279       .  A
Cu107      Cu108   2.367       .  S
C109        C269   1.483       .  S
C110        C285   1.478       .  S
C111        C378   1.493       .  S
C112        C237   1.489       .  S
O113       Cu609   2.004       .  S
O113       C1099   1.277       .  A
O114       Cu121   2.007       .  S
O114       C1100   1.277       .  A
O115       Cu121   2.008       .  S
O115       C1101   1.277       .  A
O116       Cu121   2.012       .  S
O116       C1102   1.280       .  A
O117       Cu610   2.000       .  S
O117        C126   1.276       .  A
O118       Cu610   2.003       .  S
O118        C125   1.276       .  A
O119       Cu610   2.005       .  S
O119        C124   1.278   1_455  A
O120       Cu122   2.010       .  S
O120        C123   1.278       .  A
Cu121       O601   2.004       .  S
Cu121     Cu1586   2.371       .  S
Cu122       O605   2.000       .  S
Cu122       O606   2.003   1_554  S
Cu122       O607   2.005   1_554  S
Cu122     Cu1585   2.371   1_455  S
C123       O1089   1.277   1_455  A
C123        C218   1.478       .  S
C124       O1090   1.277       .  A
C124        C202   1.488       .  S
C125       O1091   1.277   1_455  A
C125        C461   1.471   1_455  S
C126       O1092   1.280   1_455  A
C126        C317   1.489       .  S
O127       Cu135   2.003       .  S
O127        C137   1.277       .  A
O128       Cu135   2.006       .  S
O128        C138   1.277       .  A
O129       Cu135   2.008       .  S
O129        C139   1.278       .  A
O130       Cu135   2.008       .  S
O130        C140   1.277       .  A
O131       Cu136   2.011       .  S
O131       C1116   1.279       .  A
O132       Cu136   2.006       .  S
O132       C1115   1.277       .  A
O133       Cu136   2.003       .  S
O133       C1114   1.278       .  A
O134       Cu136   2.008       .  S
O134       C1113   1.277       .  A
Cu135     Cu1112   2.371   1_455  S
Cu136     Cu1111   2.371       .  S
C137       O1110   1.277   1_455  A
C137        C221   1.477       .  S
C138       O1109   1.278   1_455  A
C138        C205   1.487       .  S
C139       O1108   1.277   1_455  A
C139        C429   1.482       .  S
C140       O1107   1.279   1_455  A
C140        C298   1.483       .  S
O141       Cu637   2.011       .  S
O141        C151   1.279       .  A
O142       Cu149   2.012       .  S
O142        C152   1.279       .  A
O143       Cu149   1.996       .  S
O143        C153   1.275       .  A
O144       Cu149   1.997       .  S
O144        C154   1.275       .  A
O145       Cu150   2.019       .  S
O145        C154   1.280       .  A
O146       Cu150   2.017       .  S
O146        C153   1.280       .  A
O147       Cu150   1.999       .  S
O147        C152   1.276       .  A
O148       Cu638   1.998       .  S
O148        C151   1.275       .  A
Cu149       O629   2.011   1_554  S
Cu149      Cu150   2.368       .  S
Cu150       O636   1.998   1_554  S
C151        C173   1.482       .  S
C152        C186   1.483       .  S
C153        C394   1.491       .  S
C154        C253   1.485       .  S
O155       Cu163   2.010       .  S
O155        C165   1.279       .  A
O156       Cu163   2.011       .  S
O156        C166   1.279       .  A
O157       Cu163   2.002       .  S
O157        C167   1.276       .  A
O158       Cu163   2.003       .  S
O158        C168   1.278       .  A
O159       Cu164   2.005       .  S
O159        C168   1.277       .  A
O160       Cu164   2.008       .  S
O160        C167   1.279       .  A
O161       Cu164   2.001       .  S
O161        C166   1.276       .  A
O162       Cu164   2.000       .  S
O162        C165   1.276       .  A
Cu163      Cu164   2.368       .  S
C165        C170   1.481       .  S
C166        C189   1.483       .  S
C167        C365   1.485       .  S
C168        C234   1.489       .  S
C169        C170   1.404       .  A
C169        C174   1.403       .  A
C169        H176   1.084       .  S
C170        C171   1.417       .  A
C171        C172   1.402       .  A
C171        C178   1.509       .  S
C172        C173   1.403       .  A
C172        H177   1.084       .  S
C173        C174   1.418       .  A
C174        C175   1.509       .  S
C175        H179   1.111       .  S
C175        H180   1.109       .  S
C175        H181   1.111       .  S
C178        H182   1.111       .  S
C178        H183   1.109       .  S
C178        H184   1.111       .  S
C185        C186   1.404       .  A
C185        C190   1.403       .  A
C185        H192   1.084       .  S
C186        C187   1.418       .  A
C187        C188   1.403       .  A
C187        C194   1.509       .  S
C188        C189   1.404       .  A
C188        H193   1.084       .  S
C189        C190   1.418       .  A
C190        C191   1.509       .  S
C191        H195   1.111       .  S
C191        H196   1.108       .  S
C191        H197   1.109       .  S
C194        H198   1.110       .  S
C194        H199   1.108       .  S
C194        H200   1.111       .  S
C201        C202   1.406   1_455  A
C201        C206   1.403       .  A
C201        H208   1.084       .  S
C202       C1179   1.418       .  A
C203        C204   1.403       .  A
C203       C1178   1.418       .  A
C203        C210   1.509       .  S
C204       C1181   1.406       .  A
C204        H209   1.084       .  S
C205        C206   1.418       .  A
C205       C1180   1.406   1_455  A
C206        C207   1.509       .  S
C207        H211   1.111       .  S
C207        H212   1.110       .  S
C207        H213   1.109       .  S
C210        H214   1.109       .  S
C210        H215   1.111       .  S
C210        H216   1.111       .  S
C217        C222   1.404       .  A
C217       C1194   1.404       .  A
C217        H224   1.084       .  S
C218        C219   1.414       .  A
C218       C1193   1.404   1_455  A
C219        C220   1.402       .  A
C219        C226   1.506       .  S
C220        C221   1.403       .  A
C220        H225   1.084       .  S
C221       C1198   1.415   1_455  A
C222       C1197   1.415       .  A
C222        C223   1.508       .  S
C223        H227   1.111       .  S
C223        H228   1.108       .  S
C223        H229   1.111       .  S
C226        H230   1.109       .  S
C226        H231   1.108       .  S
C226        H232   1.111       .  S
C233        C234   1.406       .  A
C233        C238   1.402       .  A
C233        H240   1.084       .  S
C234        C235   1.419       .  A
C235        C236   1.403       .  A
C235        C242   1.508       .  S
C236        C237   1.405       .  A
C236        H241   1.084       .  S
C237        C238   1.420       .  A
C238        C239   1.510       .  S
C239        H243   1.111       .  S
C239        H244   1.109       .  S
C239        H245   1.110       .  S
C242        H246   1.109       .  S
C242        H247   1.109       .  S
C242        H248   1.111       .  S
C249        C250   1.404       .  A
C249        C254   1.403       .  A
C249        H256   1.084       .  S
C250        C251   1.417   1_554  A
C251        C252   1.404       .  A
C251        C746   1.509       .  S
C252        C253   1.404   1_556  A
C252        H745   1.083       .  S
C253        C254   1.418       .  A
C254        C255   1.509       .  S
C255        H259   1.111       .  S
C255        H261   1.111       .  S
C255        H748   1.109       .  S
H257        C740   1.083       .  S
C258        C739   1.509       .  S
C258        H262   1.111       .  S
C258        H264   1.111       .  S
C258        H751   1.108       .  S
H260        C743   1.109       .  S
H263        C746   1.108       .  S
C265        C266   1.404       .  A
C265        C270   1.404       .  A
C265        H272   1.084       .  S
C266        C267   1.418       .  A
C267        C268   1.405       .  A
C267        C274   1.509       .  S
C268        C269   1.404       .  A
C268        H273   1.084       .  S
C269        C270   1.417       .  A
C270        C271   1.510       .  S
C271        H275   1.111       .  S
C271        H276   1.107       .  S
C271        H277   1.111       .  S
C274        H278   1.111       .  S
C274        H279   1.108       .  S
C274        H280   1.111       .  S
C281        C282   1.403       .  A
C281        C286   1.405       .  A
C281        H288   1.084       .  S
C282        C283   1.415       .  A
C283        C284   1.404       .  A
C283        C290   1.509       .  S
C284        C285   1.403       .  A
C284        H289   1.084       .  S
C285        C286   1.415       .  A
C286        C287   1.509       .  S
C287        H291   1.111       .  S
C287        H292   1.108       .  S
C287        H293   1.111       .  S
C290        H294   1.111       .  S
C290        H295   1.108       .  S
C290        H296   1.111       .  S
C297        C302   1.404       .  A
C297       C1274   1.404       .  A
C297        H304   1.084       .  S
C298        C299   1.416       .  A
C298       C1273   1.404   1_455  A
C299        C300   1.405       .  A
C299        C306   1.508       .  S
C300        C301   1.405   1_455  A
C300        H305   1.084       .  S
C301       C1278   1.416       .  A
C302       C1277   1.416       .  A
C302        C303   1.509       .  S
C303        H307   1.111       .  S
C303        H308   1.109       .  S
C303        H309   1.111       .  S
C306        H310   1.111       .  S
C306        H311   1.109       .  S
C306        H312   1.111       .  S
C313        C318   1.403       .  A
C313       C1778   1.404   1_455  A
C313        H320   1.083       .  S
C314        C315   1.420       .  A
C314       C1777   1.404       .  A
C315        C316   1.404       .  A
C315        C322   1.510       .  S
C316       C1293   1.405       .  A
C316        H321   1.084       .  S
C317       C1292   1.405   1_455  A
C317        C806   1.419       .  A
C318        C805   1.419       .  A
C318        C319   1.508       .  S
C319        H323   1.111       .  S
C319        H325   1.107       .  S
C319        H812   1.108       .  S
C322        H326   1.111       .  S
C322        H328   1.111       .  S
C322        H815   1.109       .  S
H324        C807   1.108       .  S
H327        C810   1.109       .  S
C329        C334   1.402       .  A
C329       C1306   1.403       .  A
C329        H336   1.084       .  S
C330       C1044   1.478   1_655  S
C330        C331   1.416   1_655  A
C330       C1305   1.403       .  A
C331        C332   1.403       .  A
C331        C338   1.510       .  S
C332        C333   1.404   1_455  A
C332        H337   1.084       .  S
C333       C1310   1.418       .  A
C334       C1309   1.418       .  A
C334        C335   1.510       .  S
C335        H339   1.111       .  S
C335        H340   1.107       .  S
C335        H341   1.108       .  S
C338        H342   1.111       .  S
C338        H343   1.108       .  S
C338        H344   1.111       .  S
C345        C350   1.402       .  A
C345       C1322   1.404       .  A
C345        H352   1.084       .  S
C346       C1043   1.486       .  S
C346        C347   1.419       .  A
C346       C1321   1.404   1_455  A
C347        C348   1.405       .  A
C347        C354   1.510       .  S
C348        C349   1.405   1_455  A
C348        H353   1.084       .  S
C349       C1326   1.420       .  A
C350       C1325   1.420       .  A
C350        C351   1.510       .  S
C351        H355   1.111       .  S
C351        H356   1.108       .  S
C351        H357   1.110       .  S
C354        H358   1.111       .  S
C354        H359   1.108       .  S
C354        H360   1.111       .  S
C361        C362   1.400       .  A
C361        C366   1.404       .  A
C361        H368   1.085       .  S
C362        C363   1.410       .  A
C363        C364   1.402       .  A
C363        C370   1.508       .  S
C364        C365   1.407       .  A
C364        H369   1.084       .  S
C365        C366   1.421       .  A
C366        C367   1.509       .  S
C367        H371   1.111       .  S
C367        H372   1.110       .  S
C367        H373   1.111       .  S
C370        H374   1.110       .  S
C370        H375   1.111       .  S
C370        H376   1.111       .  S
C377        C378   1.411       .  A
C377        C382   1.403       .  A
C377        H384   1.084       .  S
C378        C379   1.426       .  A
C379        C380   1.403       .  A
C379        C386   1.509       .  S
C380        C381   1.396       .  A
C380        H385   1.085       .  S
C381        C382   1.407       .  A
C382        C383   1.508       .  S
C383        H387   1.111       .  S
C383        H388   1.110       .  S
C383        H389   1.110       .  S
C386        H390   1.109       .  S
C386        H391   1.110       .  S
C386        H392   1.111       .  S
C393        C398   1.404       .  A
C393        C882   1.409       .  A
C393        H400   1.084       .  S
C394        C395   1.424       .  A
C394        C881   1.409   1_554  A
C395        C396   1.404       .  A
C395        C402   1.508       .  S
C396        C397   1.397       .  A
C396        H401   1.085       .  S
C397        C886   1.408   1_554  A
C398        C885   1.408       .  A
C398        C399   1.507       .  S
C399        H403   1.109       .  S
C399        H405   1.110       .  S
C399        H892   1.111       .  S
C402        H406   1.110       .  S
C402        H408   1.109       .  S
C402        H895   1.110       .  S
H404        C887   1.111   1_554  S
H407        C890   1.110       .  S
C409        C410   1.402       .  A
C409        C414   1.404       .  A
C409        H416   1.084       .  S
C410        C411   1.412   1_554  A
C411        C412   1.403       .  A
C411        C418   1.508       .  S
C412        C413   1.405   1_556  A
C412        H417   1.084       .  S
C413        C414   1.418       .  A
C414        C415   1.509       .  S
C415        H419   1.111       .  S
C415        H421   1.111       .  S
C415        H908   1.109       .  S
C418        H423   1.109       .  S
C418        H910   1.110       .  S
C418        H912   1.111       .  S
H420        C903   1.109       .  S
H422        C906   1.110       .  S
H424        C906   1.111       .  S
C425        C430   1.405       .  A
C425       C1402   1.402       .  A
C425        H432   1.084       .  S
C426        C427   1.413       .  A
C426       C1401   1.402   1_455  A
C427        C428   1.402       .  A
C427        C434   1.508       .  S
C428        C429   1.405       .  A
C428        H433   1.084       .  S
C429       C1406   1.418   1_455  A
C430       C1405   1.418       .  A
C430        C431   1.508       .  S
C431        H435   1.111       .  S
C431        H436   1.110       .  S
C431        H437   1.111       .  S
C434        H438   1.109       .  S
C434        H439   1.111       .  S
C434        H440   1.111       .  S
C441        C446   1.404       .  A
C441       C1418   1.398       .  A
C441        H448   1.085       .  S
C442        C443   1.410       .  A
C442       C1417   1.398   1_455  A
C443        C444   1.404       .  A
C443        C450   1.508       .  S
C444        C445   1.408       .  A
C444        H449   1.084       .  S
C445       C1422   1.422   1_455  A
C446       C1421   1.422       .  A
C446        C447   1.508       .  S
C447        H451   1.111       .  S
C447        H452   1.110       .  S
C447        H453   1.110       .  S
C450        H454   1.108       .  S
C450        H455   1.108       .  S
C450        H456   1.111       .  S
C457        C458   1.407   1_455  A
C457        C462   1.403       .  A
C457        H464   1.084       .  S
C458        C499   1.486       .  S
C458       C1923   1.420       .  A
C459        C460   1.404       .  A
C459       C1922   1.420       .  A
C459        C466   1.508       .  S
C460       C1925   1.399       .  A
C460        H465   1.085       .  S
C461        C462   1.410   1_655  A
C461       C1924   1.399       .  A
C462        C463   1.508       .  S
C463        H467   1.111       .  S
C463        H468   1.110       .  S
C463        H469   1.111       .  S
C466        H470   1.109       .  S
C466        H471   1.111       .  S
C466        H472   1.111       .  S
C473        C478   1.404       .  A
C473       C1938   1.403   1_554  A
C473        H480   1.084       .  S
C474        C475   1.416       .  A
C474       C1937   1.403       .  A
C475        C476   1.403       .  A
C475        C482   1.509       .  S
C476        C477   1.402       .  A
C476        H481   1.084       .  S
C477       C1942   1.415       .  A
C478       C1941   1.415       .  A
C478        C479   1.508       .  S
C479        H483   1.111       .  S
C479        H484   1.109       .  S
C479        H973   1.109       .  S
C482        H487   1.111       .  S
C482        H488   1.111       .  S
C482        H974   1.109       .  S
H485        C967   1.109       .  S
H486        C970   1.109       .  S
O489       Cu497   2.006   1_545  S
O489        C499   1.277       .  A
O490      Cu1473   2.006       .  S
O491       Cu497   1.988   1_445  S
O491        C501   1.275       .  A
O492      Cu1473   1.991       .  S
O492        C502   1.276   1_565  A
O493       Cu498   1.989       .  S
O494      Cu1474   1.990   1_455  S
O495       Cu498   2.009   1_565  S
O495        C500   1.278   1_556  A
O496      Cu1474   2.010       .  S
Cu497      O1466   2.006   1_655  S
Cu497      O1468   1.991       .  S
Cu497      Cu986   2.376   1_565  S
Cu498      O1470   1.990       .  S
Cu498      O1472   2.010       .  S
Cu498      Cu985   2.376   1_546  S
C500        C965   1.477       .  S
C501        C529   1.451   1_545  S
C502        C530   1.453       .  S
O503       Cu511   2.014   1_545  S
O503        C513   1.278       .  A
O504       Cu511   2.015       .  S
O504        C514   1.280       .  A
O505       Cu511   1.990       .  S
O505        C515   1.275       .  A
O506      Cu1487   1.986       .  S
O506        C516   1.275   1_565  A
O507      Cu1488   1.993       .  S
O507        C516   1.276       .  A
O508       Cu512   1.989   1_565  S
O508        C515   1.275       .  A
O509       Cu512   2.003   1_565  S
O509        C514   1.276       .  A
O510       Cu512   2.003       .  S
O510        C513   1.277       .  A
Cu511      O1482   1.986   1_455  S
Cu511      Cu512   2.376   1_565  S
Cu512      O1483   1.993   1_455  S
C513        C914   1.475       .  S
C514        C933   1.489       .  S
C515        C543   1.453       .  S
C516        C544   1.451       .  S
O517       Cu525   2.009       .  S
O518       Cu525   2.009   1_565  S
O519       Cu525   1.984       .  S
O520       Cu525   1.995       .  S
O521       Cu526   1.987   1_545  S
O521        C530   1.275       .  A
O522       Cu526   1.993       .  S
O522        C529   1.276       .  A
O523       Cu526   2.007       .  S
O523        C528   1.277       .  A
O524       Cu526   2.007   1_545  S
O524        C527   1.277       .  A
C527        C885   1.469       .  S
C528        C898   1.474       .  S
O531       Cu539   2.003   1_565  S
O531        C541   1.276       .  A
O532       Cu539   2.005       .  S
O532        C542   1.277       .  A
O533       Cu539   1.990   1_565  S
O533        C543   1.276       .  A
O534       Cu539   1.992       .  S
O534        C544   1.276       .  A
O535       Cu540   1.986       .  S
O535        C544   1.275   1_565  A
O536       Cu540   1.991   1_545  S
O536        C543   1.276   1_545  A
O537       Cu540   2.008   1_545  S
O537        C542   1.277       .  A
O538       Cu540   2.008       .  S
O538        C541   1.277       .  A
Cu539      Cu540   2.381   1_545  S
C541        C869   1.466       .  S
C542        C850   1.470       .  S
O545       C1531   1.275       .  A
O546       Cu553   1.998       .  S
O546       C1532   1.276       .  A
O547       Cu553   2.014       .  S
O547       C1533   1.279       .  A
O548       Cu553   2.012   1_554  S
O548       C1534   1.280   1_455  A
O549       Cu554   1.998       .  S
O549        C558   1.275       .  A
O550       Cu554   1.997   1_556  S
O550        C557   1.276       .  A
O551       Cu554   2.008   1_556  S
O551        C556   1.279       .  A
O552        C555   1.280       .  A
Cu553     Cu1530   2.370   1_456  S
Cu554     Cu1529   2.370   1_554  S
C555       O1521   1.275       .  A
C555       C1810   1.486       .  S
C556       O1522   1.276       .  A
C556       C1794   1.478       .  S
C557       O1523   1.279       .  A
C557        C962   1.478       .  S
C558       O1524   1.280       .  A
C558        C802   1.488       .  S
O559       Cu567   1.995       .  S
O559       C1545   1.275       .  A
O560       Cu567   1.996       .  S
O560       C1546   1.275       .  A
O561       Cu567   2.010       .  S
O561       C1547   1.278       .  A
O562       Cu567   2.011       .  S
O562       C1548   1.278       .  A
O563       Cu568   2.006       .  S
O563        C572   1.278   1_455  A
O564       Cu568   2.006       .  S
O564        C571   1.277   1_455  A
O565       Cu568   2.011       .  S
O565        C570   1.279   1_455  A
O566       Cu568   2.017       .  S
O566        C569   1.280   1_455  A
Cu567     Cu1544   2.371       .  S
Cu568     Cu1543   2.371   1_455  S
C569       O1535   1.275       .  A
C569        C837   1.487       .  S
C570       O1536   1.275       .  A
C570        C821   1.480       .  S
C571       O1537   1.278       .  A
C571        C930   1.471   1_655  S
C572       O1538   1.278       .  A
C572        C789   1.483       .  S
O573        C583   1.276       .  A
O574       Cu581   2.004       .  S
O574        C584   1.277       .  A
O575       Cu581   2.010       .  S
O575        C585   1.279       .  A
O576       Cu581   2.007       .  S
O576        C586   1.277       .  A
O577       Cu582   2.006       .  S
O577        C586   1.278       .  A
O578       Cu582   2.005       .  S
O578        C585   1.277       .  A
O579       Cu582   2.014       .  S
O579        C584   1.278       .  A
O580        C583   1.280       .  A
Cu581      Cu582   2.371       .  S
C583        C754   1.484       .  S
C584        C770   1.478       .  S
C585        C901   1.482       .  S
C586        C738   1.484       .  S
O587       Cu595   2.004       .  S
O587        C597   1.276       .  A
O588       Cu595   2.004       .  S
O588        C598   1.276       .  A
O589       Cu595   2.012       .  S
O589        C599   1.280       .  A
O590       Cu595   2.013       .  S
O590        C600   1.280       .  A
O591       Cu596   1.996       .  S
O591        C600   1.275       .  A
O592       Cu596   1.998       .  S
O592        C599   1.275       .  A
O593       Cu596   2.014       .  S
O593        C598   1.279       .  A
O594       Cu596   2.015       .  S
O594        C597   1.279       .  A
Cu595      Cu596   2.367       .  S
C597        C757   1.483       .  S
C598        C773   1.478       .  S
C599        C866   1.493       .  S
C600        C725   1.489       .  S
O601       C1587   1.277       .  A
O602       Cu609   2.007   1_556  S
O602       C1588   1.277       .  A
O603       Cu609   2.008       .  S
O603       C1589   1.277       .  A
O604       Cu609   2.012       .  S
O604       C1590   1.280       .  A
O605        C614   1.276       .  A
O606        C613   1.276   1_556  A
O607        C612   1.278   1_455  A
O608       Cu610   2.010       .  S
O608        C611   1.278       .  A
Cu609     Cu1098   2.371       .  S
Cu610     Cu1097   2.371   1_455  S
C611       O1577   1.277   1_455  A
C611        C706   1.478       .  S
C612       O1578   1.277       .  A
C612        C690   1.488       .  S
C613       O1579   1.277   1_455  A
C613        C949   1.471   1_455  S
C614       O1580   1.280   1_455  A
C614        C805   1.489       .  S
O615       Cu623   2.003       .  S
O615        C625   1.277       .  A
O616       Cu623   2.006       .  S
O616        C626   1.277       .  A
O617       Cu623   2.008       .  S
O617        C627   1.278       .  A
O618       Cu623   2.008       .  S
O618        C628   1.277       .  A
O619       Cu624   2.011       .  S
O619       C1604   1.279       .  A
O620       Cu624   2.006       .  S
O620       C1603   1.277       .  A
O621       Cu624   2.003       .  S
O621       C1602   1.278       .  A
O622       Cu624   2.008       .  S
O622       C1601   1.277       .  A
Cu623     Cu1600   2.371   1_455  S
Cu624     Cu1599   2.371       .  S
C625       O1598   1.277   1_455  A
C625        C709   1.477       .  S
C626       O1597   1.278   1_455  A
C626        C693   1.487       .  S
C627       O1596   1.277   1_455  A
C627        C917   1.482       .  S
C628       O1595   1.279   1_455  A
C628        C786   1.483       .  S
O629        C639   1.279       .  A
O630       Cu637   2.012       .  S
O630        C640   1.279       .  A
O631       Cu637   1.996       .  S
O631        C641   1.275       .  A
O632       Cu637   1.997       .  S
O632        C642   1.275       .  A
O633       Cu638   2.019       .  S
O633        C642   1.280       .  A
O634       Cu638   2.017       .  S
O634        C641   1.280       .  A
O635       Cu638   1.999       .  S
O635        C640   1.276       .  A
O636        C639   1.275       .  A
Cu637      Cu638   2.368       .  S
C639        C661   1.482       .  S
C640        C674   1.483       .  S
C641        C882   1.491       .  S
C642        C741   1.485       .  S
O643       Cu651   2.010       .  S
O643        C653   1.279       .  A
O644       Cu651   2.011       .  S
O644        C654   1.279       .  A
O645       Cu651   2.002       .  S
O645        C655   1.276       .  A
O646       Cu651   2.003       .  S
O646        C656   1.278       .  A
O647       Cu652   2.005       .  S
O647        C656   1.277       .  A
O648       Cu652   2.008       .  S
O648        C655   1.279       .  A
O649       Cu652   2.001       .  S
O649        C654   1.276       .  A
O650       Cu652   2.000       .  S
O650        C653   1.276       .  A
Cu651      Cu652   2.368       .  S
C653        C658   1.481       .  S
C654        C677   1.483       .  S
C655        C853   1.485       .  S
C656        C722   1.489       .  S
C657        C658   1.404       .  A
C657        C662   1.403       .  A
C657        H664   1.084       .  S
C658        C659   1.417       .  A
C659        C660   1.402       .  A
C659        C666   1.509       .  S
C660        C661   1.403       .  A
C660        H665   1.084       .  S
C661        C662   1.418       .  A
C662        C663   1.509       .  S
C663        H667   1.111       .  S
C663        H668   1.109       .  S
C663        H669   1.111       .  S
C666        H670   1.111       .  S
C666        H671   1.109       .  S
C666        H672   1.111       .  S
C673        C674   1.404       .  A
C673        C678   1.403       .  A
C673        H680   1.084       .  S
C674        C675   1.418       .  A
C675        C676   1.403       .  A
C675        C682   1.509       .  S
C676        C677   1.404       .  A
C676        H681   1.084       .  S
C677        C678   1.418       .  A
C678        C679   1.509       .  S
C679        H683   1.111       .  S
C679        H684   1.108       .  S
C679        H685   1.109       .  S
C682        H686   1.110       .  S
C682        H687   1.108       .  S
C682        H688   1.111       .  S
C689        C690   1.406   1_455  A
C689        C694   1.403       .  A
C689        H696   1.084       .  S
C690       C1667   1.418       .  A
C691       C1666   1.418       .  A
C691        C692   1.403       .  A
C691        C698   1.509       .  S
C692       C1669   1.406       .  A
C692        H697   1.084       .  S
C693       C1668   1.406   1_455  A
C693        C694   1.418       .  A
C694        C695   1.509       .  S
C695        H699   1.111       .  S
C695        H700   1.110       .  S
C695        H701   1.109       .  S
C698        H702   1.109       .  S
C698        H703   1.111       .  S
C698        H704   1.111       .  S
C705       C1682   1.404       .  A
C705        C710   1.404       .  A
C705        H712   1.084       .  S
C706       C1681   1.404   1_455  A
C706        C707   1.414       .  A
C707        C708   1.402       .  A
C707        C714   1.506       .  S
C708        C709   1.403       .  A
C708        H713   1.084       .  S
C709       C1686   1.415   1_455  A
C710       C1685   1.415       .  A
C710        C711   1.508       .  S
C711        H715   1.111       .  S
C711        H716   1.108       .  S
C711        H717   1.111       .  S
C714        H718   1.109       .  S
C714        H719   1.108       .  S
C714        H720   1.111       .  S
C721        C722   1.406       .  A
C721        C726   1.402       .  A
C721        H728   1.084       .  S
C722        C723   1.419       .  A
C723        C724   1.403       .  A
C723        C730   1.508       .  S
C724        C725   1.405       .  A
C724        H729   1.084       .  S
C725        C726   1.420       .  A
C726        C727   1.510       .  S
C727        H731   1.111       .  S
C727        H732   1.109       .  S
C727        H733   1.110       .  S
C730        H734   1.109       .  S
C730        H735   1.109       .  S
C730        H736   1.111       .  S
C737        C738   1.404       .  A
C737        C742   1.403       .  A
C737        H744   1.084       .  S
C738        C739   1.417       .  A
C739        C740   1.404       .  A
C740        C741   1.404       .  A
C741        C742   1.418       .  A
C742        C743   1.509       .  S
C743        H747   1.111       .  S
C743        H749   1.111       .  S
C746        H750   1.111       .  S
C746        H752   1.111       .  S
C753        C754   1.404       .  A
C753        C758   1.404       .  A
C753        H760   1.084       .  S
C754        C755   1.418       .  A
C755        C756   1.405       .  A
C755        C762   1.509       .  S
C756        C757   1.404       .  A
C756        H761   1.084       .  S
C757        C758   1.417       .  A
C758        C759   1.510       .  S
C759        H763   1.111       .  S
C759        H764   1.107       .  S
C759        H765   1.111       .  S
C762        H766   1.111       .  S
C762        H767   1.108       .  S
C762        H768   1.111       .  S
C769        C770   1.403       .  A
C769        C774   1.405       .  A
C769        H776   1.084       .  S
C770        C771   1.415       .  A
C771        C772   1.404       .  A
C771        C778   1.509       .  S
C772        C773   1.403       .  A
C772        H777   1.084       .  S
C773        C774   1.415       .  A
C774        C775   1.509       .  S
C775        H779   1.111       .  S
C775        H780   1.108       .  S
C775        H781   1.111       .  S
C778        H782   1.111       .  S
C778        H783   1.108       .  S
C778        H784   1.111       .  S
C785       C1762   1.404       .  A
C785        C790   1.404       .  A
C785        H792   1.084       .  S
C786       C1761   1.404   1_455  A
C786        C787   1.416       .  A
C787        C788   1.405       .  A
C787        C794   1.508       .  S
C788        C789   1.405   1_455  A
C788        H793   1.084       .  S
C789       C1766   1.416       .  A
C790       C1765   1.416       .  A
C790        C791   1.509       .  S
C791        H795   1.111       .  S
C791        H796   1.109       .  S
C791        H797   1.111       .  S
C794        H798   1.111       .  S
C794        H799   1.109       .  S
C794        H800   1.111       .  S
C801       C1290   1.404   1_455  A
C801        C806   1.403       .  A
C801        H808   1.083       .  S
C802       C1289   1.404       .  A
C802        C803   1.420   1_554  A
C803        C804   1.404       .  A
C803        C810   1.510       .  S
C804       C1781   1.405   1_556  A
C804        H809   1.084       .  S
C805       C1780   1.405   1_454  A
C806        C807   1.508       .  S
C807        H811   1.111       .  S
C807        H813   1.107       .  S
C810        H814   1.111       .  S
C810        H816   1.111       .  S
C817       C1794   1.403       .  A
C817        C822   1.402       .  A
C817        H824   1.084       .  S
C818       C1532   1.478   1_655  S
C818       C1793   1.403       .  A
C818        C819   1.416   1_655  A
C819        C820   1.403       .  A
C819        C826   1.510       .  S
C820        C821   1.404   1_455  A
C820        H825   1.084       .  S
C821       C1798   1.418       .  A
C822       C1797   1.418       .  A
C822        C823   1.510       .  S
C823        H827   1.111       .  S
C823        H828   1.107       .  S
C823        H829   1.108       .  S
C826        H830   1.111       .  S
C826        H831   1.108       .  S
C826        H832   1.111       .  S
C833       C1810   1.404       .  A
C833        C838   1.402       .  A
C833        H840   1.084       .  S
C834       C1531   1.486       .  S
C834       C1809   1.404   1_455  A
C834        C835   1.419       .  A
C835        C836   1.405       .  A
C835        C842   1.510       .  S
C836        C837   1.405   1_455  A
C836        H841   1.084       .  S
C837       C1814   1.420       .  A
C838       C1813   1.420       .  A
C838        C839   1.510       .  S
C839        H843   1.111       .  S
C839        H844   1.108       .  S
C839        H845   1.110       .  S
C842        H846   1.111       .  S
C842        H847   1.108       .  S
C842        H848   1.111       .  S
C849        C850   1.400       .  A
C849        C854   1.404       .  A
C849        H856   1.085       .  S
C850        C851   1.410       .  A
C851        C852   1.402       .  A
C851        C858   1.508       .  S
C852        C853   1.407       .  A
C852        H857   1.084       .  S
C853        C854   1.421       .  A
C854        C855   1.509       .  S
C855        H859   1.111       .  S
C855        H860   1.110       .  S
C855        H861   1.111       .  S
C858        H862   1.110       .  S
C858        H863   1.111       .  S
C858        H864   1.111       .  S
C865        C866   1.411       .  A
C865        C870   1.403       .  A
C865        H872   1.084       .  S
C866        C867   1.426       .  A
C867        C868   1.403       .  A
C867        C874   1.509       .  S
C868        C869   1.396       .  A
C868        H873   1.085       .  S
C869        C870   1.407       .  A
C870        C871   1.508       .  S
C871        H875   1.111       .  S
C871        H876   1.110       .  S
C871        H877   1.110       .  S
C874        H878   1.109       .  S
C874        H879   1.110       .  S
C874        H880   1.111       .  S
C881        C886   1.404       .  A
C881        H888   1.084       .  S
C882        C883   1.424       .  A
C883        C884   1.404       .  A
C883        C890   1.508       .  S
C884        C885   1.397       .  A
C884        H889   1.085       .  S
C886        C887   1.507       .  S
C887        H891   1.109       .  S
C887        H893   1.110       .  S
C890        H894   1.110       .  S
C890        H896   1.109       .  S
C897        C898   1.402       .  A
C897        C902   1.404       .  A
C897        H904   1.084       .  S
C898        C899   1.412       .  A
C899        C900   1.403       .  A
C899        C906   1.508       .  S
C900        C901   1.405       .  A
C900        H905   1.084       .  S
C901        C902   1.418       .  A
C902        C903   1.509       .  S
C903        H907   1.111       .  S
C903        H909   1.111       .  S
C906        H911   1.109       .  S
C913       C1890   1.402       .  A
C913        C918   1.405       .  A
C913        H920   1.084       .  S
C914       C1889   1.402   1_455  A
C914        C915   1.413       .  A
C915        C916   1.402       .  A
C915        C922   1.508       .  S
C916        C917   1.405       .  A
C916        H921   1.084       .  S
C917       C1894   1.418   1_455  A
C918       C1893   1.418       .  A
C918        C919   1.508       .  S
C919        H923   1.111       .  S
C919        H924   1.110       .  S
C919        H925   1.111       .  S
C922        H926   1.109       .  S
C922        H927   1.111       .  S
C922        H928   1.111       .  S
C929       C1906   1.398       .  A
C929        C934   1.404       .  A
C929        H936   1.085       .  S
C930       C1905   1.398   1_455  A
C930        C931   1.410       .  A
C931        C932   1.404       .  A
C931        C938   1.508       .  S
C932        C933   1.408       .  A
C932        H937   1.084       .  S
C933       C1910   1.422   1_455  A
C934       C1909   1.422       .  A
C934        C935   1.508       .  S
C935        H939   1.111       .  S
C935        H940   1.110       .  S
C935        H941   1.110       .  S
C938        H942   1.108       .  S
C938        H943   1.108       .  S
C938        H944   1.111       .  S
C945        C946   1.407   1_456  A
C945        C950   1.403       .  A
C945        H952   1.084       .  S
C946       C1435   1.420       .  A
C947       C1434   1.420       .  A
C947        C948   1.404       .  A
C947        C954   1.508       .  S
C948       C1437   1.399       .  A
C948        H953   1.085       .  S
C949       C1436   1.399       .  A
C949        C950   1.410   1_654  A
C950        C951   1.508       .  S
C951        H955   1.111       .  S
C951        H956   1.110       .  S
C951        H957   1.111       .  S
C954        H958   1.109       .  S
C954        H959   1.111       .  S
C954        H960   1.111       .  S
C961       C1450   1.403       .  A
C961        C966   1.404       .  A
C961        H968   1.084       .  S
C962       C1449   1.403   1_556  A
C962        C963   1.416       .  A
C963        C964   1.403       .  A
C963        C970   1.509       .  S
C964        C965   1.402   1_556  A
C964        H969   1.084       .  S
C965       C1454   1.415       .  A
C966       C1453   1.415       .  A
C966        C967   1.508       .  S
C967        H971   1.111       .  S
C967        H972   1.109       .  S
C970        H975   1.111       .  S
C970        H976   1.111       .  S
O977       Cu985   2.006   1_545  S
O977        C987   1.277       .  A
O978       C1476   1.277       .  A
O979       Cu985   1.988   1_545  S
O979        C989   1.275       .  A
O980        C990   1.276   1_565  A
O981       Cu986   1.989       .  S
O981       C1478   1.275       .  A
O982       C1477   1.276       .  A
O983       Cu986   2.009   1_565  S
O983        C988   1.278   1_655  A
O984       C1475   1.279       .  A
C987       O1472   1.279   1_554  A
C987       C1922   1.486       .  S
C988       O1466   1.277       .  A
C988       C1453   1.477       .  S
C989       O1470   1.276   1_554  A
C989       C1017   1.451   1_545  S
C990       O1469   1.275   1_554  A
C990       C1018   1.453       .  S
O991       Cu999   2.014   1_545  S
O991       C1001   1.278       .  A
O992       Cu999   2.015       .  S
O992       C1002   1.280       .  A
O993       Cu999   1.990       .  S
O993       C1003   1.275       .  A
O994       C1004   1.275   1_565  A
O995       C1004   1.276       .  A
O996      Cu1000   1.989   1_565  S
O996       C1003   1.275       .  A
O997      Cu1000   2.003   1_565  S
O997       C1002   1.276       .  A
O998      Cu1000   2.003       .  S
O998       C1001   1.277       .  A
Cu999     Cu1000   2.376   1_565  S
C1001      C1402   1.475       .  S
C1002      C1421   1.489       .  S
C1003      C1031   1.453       .  S
C1004      C1032   1.451       .  S
O1005     Cu1013   2.009       .  S
O1005      C1503   1.277       .  A
O1006     Cu1013   2.009   1_565  S
O1006      C1504   1.278       .  A
O1007     Cu1013   1.984       .  S
O1007      C1505   1.275   1_545  A
O1008     Cu1013   1.995       .  S
O1008      C1506   1.276       .  A
O1009     Cu1014   1.987   1_545  S
O1009      C1018   1.275       .  A
O1010     Cu1014   1.993       .  S
O1010      C1017   1.276       .  A
O1011     Cu1014   2.007       .  S
O1011      C1016   1.277       .  A
O1012     Cu1014   2.007   1_545  S
O1012      C1015   1.277       .  A
Cu1013    Cu1502   2.380   1_545  S
Cu1014    Cu1501   2.380   1_564  S
C1015      O1493   1.277   1_554  A
C1015      C1373   1.469       .  S
C1016      O1494   1.278   1_554  A
C1016      C1386   1.474       .  S
C1017      O1495   1.275   1_564  A
C1018      O1496   1.276   1_554  A
O1019     Cu1027   2.003   1_565  S
O1019      C1029   1.276       .  A
O1020     Cu1027   2.005       .  S
O1020      C1030   1.277       .  A
O1021     Cu1027   1.990   1_565  S
O1021      C1031   1.276       .  A
O1022     Cu1027   1.992       .  S
O1022      C1032   1.276       .  A
O1023     Cu1028   1.986       .  S
O1023      C1032   1.275   1_565  A
O1024     Cu1028   1.991   1_545  S
O1024      C1031   1.276   1_545  A
O1025     Cu1028   2.008   1_545  S
O1025      C1030   1.277       .  A
O1026     Cu1028   2.008       .  S
O1026      C1029   1.277       .  A
Cu1027    Cu1028   2.381   1_545  S
C1029      C1357   1.466       .  S
C1030      C1338   1.470       .  S
O1033     Cu1529   1.999   1_554  S
O1034     Cu1041   1.998       .  S
O1035     Cu1041   2.014       .  S
O1036     Cu1041   2.012       .  S
O1037     Cu1042   1.998       .  S
O1037      C1046   1.275       .  A
O1038     Cu1042   1.997       .  S
O1038      C1045   1.276   1_655  A
O1039     Cu1042   2.008       .  S
O1039      C1044   1.279   1_655  A
O1040     Cu1530   2.012       .  S
O1040      C1043   1.280   1_655  A
Cu1041     O1521   1.999       .  S
Cu1042     O1528   2.012       .  S
C1045      C1450   1.478       .  S
C1046      C1290   1.488       .  S
O1047     Cu1055   1.995       .  S
O1048     Cu1055   1.996       .  S
O1049     Cu1055   2.010       .  S
O1050     Cu1055   2.011       .  S
O1051     Cu1056   2.006       .  S
O1051      C1060   1.278       .  A
O1052     Cu1056   2.006       .  S
O1052      C1059   1.277       .  A
O1053     Cu1056   2.011       .  S
O1053      C1058   1.279       .  A
O1054     Cu1056   2.017       .  S
O1054      C1057   1.280       .  A
C1057      C1325   1.487       .  S
C1058      C1309   1.480       .  S
C1059      C1418   1.471       .  S
C1060      C1277   1.483       .  S
O1061     Cu1557   2.001       .  S
O1061      C1071   1.276       .  A
O1062     Cu1069   2.004       .  S
O1062      C1072   1.277       .  A
O1063     Cu1069   2.010       .  S
O1063      C1073   1.279       .  A
O1064     Cu1069   2.007       .  S
O1064      C1074   1.277       .  A
O1065     Cu1070   2.006       .  S
O1065      C1074   1.278       .  A
O1066     Cu1070   2.005       .  S
O1066      C1073   1.277       .  A
O1067     Cu1070   2.014       .  S
O1067      C1072   1.278       .  A
O1068     Cu1558   2.016       .  S
O1068      C1071   1.280       .  A
Cu1069     O1549   2.001   1_554  S
Cu1069    Cu1070   2.371       .  S
Cu1070     O1556   2.016   1_554  S
C1071      C1242   1.484       .  S
C1072      C1258   1.478       .  S
C1073      C1389   1.482       .  S
C1074      C1226   1.484       .  S
O1075     Cu1083   2.004       .  S
O1075      C1085   1.276       .  A
O1076     Cu1083   2.004       .  S
O1076      C1086   1.276       .  A
O1077     Cu1083   2.012       .  S
O1077      C1087   1.280       .  A
O1078     Cu1083   2.013       .  S
O1078      C1088   1.280       .  A
O1079     Cu1084   1.996       .  S
O1079      C1088   1.275       .  A
O1080     Cu1084   1.998       .  S
O1080      C1087   1.275       .  A
O1081     Cu1084   2.014       .  S
O1081      C1086   1.279       .  A
O1082     Cu1084   2.015       .  S
O1082      C1085   1.279       .  A
Cu1083    Cu1084   2.367       .  S
C1085      C1245   1.483       .  S
C1086      C1261   1.478       .  S
C1087      C1354   1.493       .  S
C1088      C1213   1.489       .  S
O1089     Cu1585   2.004       .  S
O1090     Cu1097   2.007       .  S
O1091     Cu1097   2.008       .  S
O1092     Cu1097   2.012       .  S
O1093     Cu1586   2.000       .  S
O1093      C1102   1.276       .  A
O1094     Cu1586   2.003       .  S
O1094      C1101   1.276       .  A
O1095     Cu1586   2.005       .  S
O1095      C1100   1.278       .  A
O1096     Cu1098   2.010       .  S
O1096      C1099   1.278       .  A
Cu1097     O1577   2.004       .  S
Cu1098     O1581   2.000       .  S
Cu1098     O1582   2.003   1_554  S
Cu1098     O1583   2.005   1_554  S
C1099      C1194   1.478       .  S
C1100      C1178   1.488       .  S
C1101      C1437   1.471       .  S
C1102      C1293   1.489       .  S
O1103     Cu1111   2.003       .  S
O1103      C1113   1.277       .  A
O1104     Cu1111   2.006       .  S
O1104      C1114   1.277       .  A
O1105     Cu1111   2.008       .  S
O1105      C1115   1.278       .  A
O1106     Cu1111   2.008       .  S
O1106      C1116   1.277       .  A
O1107     Cu1112   2.011       .  S
O1108     Cu1112   2.006       .  S
O1109     Cu1112   2.003       .  S
O1110     Cu1112   2.008       .  S
C1113      C1197   1.477       .  S
C1114      C1181   1.487       .  S
C1115      C1405   1.482       .  S
C1116      C1274   1.483       .  S
O1117     Cu1613   2.011       .  S
O1117      C1127   1.279       .  A
O1118     Cu1125   2.012       .  S
O1118      C1128   1.279       .  A
O1119     Cu1125   1.996       .  S
O1119      C1129   1.275       .  A
O1120     Cu1125   1.997       .  S
O1120      C1130   1.275       .  A
O1121     Cu1126   2.019       .  S
O1121      C1130   1.280       .  A
O1122     Cu1126   2.017       .  S
O1122      C1129   1.280       .  A
O1123     Cu1126   1.999       .  S
O1123      C1128   1.276       .  A
O1124     Cu1614   1.998       .  S
O1124      C1127   1.275       .  A
Cu1125     O1605   2.011   1_554  S
Cu1125    Cu1126   2.368       .  S
Cu1126     O1612   1.998   1_554  S
C1127      C1149   1.482       .  S
C1128      C1162   1.483       .  S
C1129      C1370   1.491       .  S
C1130      C1229   1.485       .  S
O1131     Cu1139   2.010       .  S
O1131      C1141   1.279       .  A
O1132     Cu1139   2.011       .  S
O1132      C1142   1.279       .  A
O1133     Cu1139   2.002       .  S
O1133      C1143   1.276       .  A
O1134     Cu1139   2.003       .  S
O1134      C1144   1.278       .  A
O1135     Cu1140   2.005       .  S
O1135      C1144   1.277       .  A
O1136     Cu1140   2.008       .  S
O1136      C1143   1.279       .  A
O1137     Cu1140   2.001       .  S
O1137      C1142   1.276       .  A
O1138     Cu1140   2.000       .  S
O1138      C1141   1.276       .  A
Cu1139    Cu1140   2.368       .  S
C1141      C1146   1.481       .  S
C1142      C1165   1.483       .  S
C1143      C1341   1.485       .  S
C1144      C1210   1.489       .  S
C1145      C1146   1.404       .  A
C1145      C1150   1.403       .  A
C1145      H1152   1.084       .  S
C1146      C1147   1.417       .  A
C1147      C1148   1.402       .  A
C1147      C1154   1.509       .  S
C1148      C1149   1.403       .  A
C1148      H1153   1.084       .  S
C1149      C1150   1.418       .  A
C1150      C1151   1.509       .  S
C1151      H1155   1.111       .  S
C1151      H1156   1.109       .  S
C1151      H1157   1.111       .  S
C1154      H1158   1.111       .  S
C1154      H1159   1.109       .  S
C1154      H1160   1.111       .  S
C1161      C1162   1.404       .  A
C1161      C1166   1.403       .  A
C1161      H1168   1.084       .  S
C1162      C1163   1.418       .  A
C1163      C1164   1.403       .  A
C1163      C1170   1.509       .  S
C1164      C1165   1.404       .  A
C1164      H1169   1.084       .  S
C1165      C1166   1.418       .  A
C1166      C1167   1.509       .  S
C1167      H1171   1.111       .  S
C1167      H1172   1.108       .  S
C1167      H1173   1.109       .  S
C1170      H1174   1.110       .  S
C1170      H1175   1.108       .  S
C1170      H1176   1.111       .  S
C1177      C1178   1.406       .  A
C1177      C1182   1.403       .  A
C1177      H1184   1.084       .  S
C1179      C1180   1.403       .  A
C1179      C1186   1.509       .  S
C1180      H1185   1.084       .  S
C1181      C1182   1.418       .  A
C1182      C1183   1.509       .  S
C1183      H1187   1.111       .  S
C1183      H1188   1.110       .  S
C1183      H1189   1.109       .  S
C1186      H1190   1.109       .  S
C1186      H1191   1.111       .  S
C1186      H1192   1.111       .  S
C1193      C1198   1.404       .  A
C1193      H1200   1.084       .  S
C1194      C1195   1.414       .  A
C1195      C1196   1.402       .  A
C1195      C1202   1.506       .  S
C1196      C1197   1.403       .  A
C1196      H1201   1.084       .  S
C1198      C1199   1.508       .  S
C1199      H1203   1.111       .  S
C1199      H1204   1.108       .  S
C1199      H1205   1.111       .  S
C1202      H1206   1.109       .  S
C1202      H1207   1.108       .  S
C1202      H1208   1.111       .  S
C1209      C1210   1.406       .  A
C1209      C1214   1.402       .  A
C1209      H1216   1.084       .  S
C1210      C1211   1.419       .  A
C1211      C1212   1.403       .  A
C1211      C1218   1.508       .  S
C1212      C1213   1.405       .  A
C1212      H1217   1.084       .  S
C1213      C1214   1.420       .  A
C1214      C1215   1.510       .  S
C1215      H1219   1.111       .  S
C1215      H1220   1.109       .  S
C1215      H1221   1.110       .  S
C1218      H1222   1.109       .  S
C1218      H1223   1.109       .  S
C1218      H1224   1.111       .  S
C1225      C1226   1.404       .  A
C1225      C1230   1.403       .  A
C1225      H1232   1.084       .  S
C1226      C1227   1.417   1_554  A
C1227      C1228   1.404       .  A
C1227      C1722   1.509       .  S
C1228      C1229   1.404   1_556  A
C1228      H1721   1.083       .  S
C1229      C1230   1.418       .  A
C1230      C1231   1.509       .  S
C1231      H1235   1.111       .  S
C1231      H1724   1.109       .  S
C1231      H1237   1.111       .  S
H1233      C1716   1.083       .  S
C1234      C1715   1.509       .  S
C1234      H1238   1.111       .  S
C1234      H1727   1.108       .  S
C1234      H1240   1.111       .  S
H1236      C1719   1.109       .  S
H1239      C1722   1.108       .  S
C1241      C1242   1.404       .  A
C1241      C1246   1.404       .  A
C1241      H1248   1.084       .  S
C1242      C1243   1.418       .  A
C1243      C1244   1.405       .  A
C1243      C1250   1.509       .  S
C1244      C1245   1.404       .  A
C1244      H1249   1.084       .  S
C1245      C1246   1.417       .  A
C1246      C1247   1.510       .  S
C1247      H1251   1.111       .  S
C1247      H1252   1.107       .  S
C1247      H1253   1.111       .  S
C1250      H1254   1.111       .  S
C1250      H1255   1.108       .  S
C1250      H1256   1.111       .  S
C1257      C1258   1.403       .  A
C1257      C1262   1.405       .  A
C1257      H1264   1.084       .  S
C1258      C1259   1.415       .  A
C1259      C1260   1.404       .  A
C1259      C1266   1.509       .  S
C1260      C1261   1.403       .  A
C1260      H1265   1.084       .  S
C1261      C1262   1.415       .  A
C1262      C1263   1.509       .  S
C1263      H1267   1.111       .  S
C1263      H1268   1.108       .  S
C1263      H1269   1.111       .  S
C1266      H1270   1.111       .  S
C1266      H1271   1.108       .  S
C1266      H1272   1.111       .  S
C1273      C1278   1.404       .  A
C1273      H1280   1.084       .  S
C1274      C1275   1.416       .  A
C1275      C1276   1.405       .  A
C1275      C1282   1.508       .  S
C1276      C1277   1.405       .  A
C1276      H1281   1.084       .  S
C1278      C1279   1.509       .  S
C1279      H1283   1.111       .  S
C1279      H1284   1.109       .  S
C1279      H1285   1.111       .  S
C1282      H1286   1.111       .  S
C1282      H1287   1.109       .  S
C1282      H1288   1.111       .  S
C1289      C1294   1.403       .  A
C1289      H1296   1.083       .  S
C1290      C1291   1.420       .  A
C1291      C1292   1.404       .  A
C1291      C1298   1.510       .  S
C1292      H1297   1.084       .  S
C1293      C1782   1.419       .  A
C1294      C1781   1.419       .  A
C1294      C1295   1.508       .  S
C1295      H1299   1.111       .  S
C1295      H1788   1.108       .  S
C1295      H1301   1.107       .  S
C1298      H1302   1.111       .  S
C1298      H1791   1.109       .  S
C1298      H1304   1.111       .  S
H1300      C1783   1.108       .  S
H1303      C1786   1.109       .  S
C1305      C1310   1.402       .  A
C1305      H1312   1.084       .  S
C1306      C1307   1.416       .  A
C1307      C1308   1.403       .  A
C1307      C1314   1.510       .  S
C1308      C1309   1.404       .  A
C1308      H1313   1.084       .  S
C1310      C1311   1.510       .  S
C1311      H1315   1.111       .  S
C1311      H1316   1.107       .  S
C1311      H1317   1.108       .  S
C1314      H1318   1.111       .  S
C1314      H1319   1.108       .  S
C1314      H1320   1.111       .  S
C1321      C1326   1.402       .  A
C1321      H1328   1.084       .  S
C1322      C1323   1.419       .  A
C1323      C1324   1.405       .  A
C1323      C1330   1.510       .  S
C1324      C1325   1.405       .  A
C1324      H1329   1.084       .  S
C1326      C1327   1.510       .  S
C1327      H1331   1.111       .  S
C1327      H1332   1.108       .  S
C1327      H1333   1.110       .  S
C1330      H1334   1.111       .  S
C1330      H1335   1.108       .  S
C1330      H1336   1.111       .  S
C1337      C1338   1.400       .  A
C1337      C1342   1.404       .  A
C1337      H1344   1.085       .  S
C1338      C1339   1.410       .  A
C1339      C1340   1.402       .  A
C1339      C1346   1.508       .  S
C1340      C1341   1.407       .  A
C1340      H1345   1.084       .  S
C1341      C1342   1.421       .  A
C1342      C1343   1.509       .  S
C1343      H1347   1.111       .  S
C1343      H1348   1.110       .  S
C1343      H1349   1.111       .  S
C1346      H1350   1.110       .  S
C1346      H1351   1.111       .  S
C1346      H1352   1.111       .  S
C1353      C1354   1.411       .  A
C1353      C1358   1.403       .  A
C1353      H1360   1.084       .  S
C1354      C1355   1.426       .  A
C1355      C1356   1.403       .  A
C1355      C1362   1.509       .  S
C1356      C1357   1.396       .  A
C1356      H1361   1.085       .  S
C1357      C1358   1.407       .  A
C1358      C1359   1.508       .  S
C1359      H1363   1.111       .  S
C1359      H1364   1.110       .  S
C1359      H1365   1.110       .  S
C1362      H1366   1.109       .  S
C1362      H1367   1.110       .  S
C1362      H1368   1.111       .  S
C1369      C1858   1.409       .  A
C1369      C1374   1.404       .  A
C1369      H1376   1.084       .  S
C1370      C1857   1.409   1_554  A
C1370      C1371   1.424       .  A
C1371      C1372   1.404       .  A
C1371      C1378   1.508       .  S
C1372      C1373   1.397       .  A
C1372      H1377   1.085       .  S
C1373      C1862   1.408   1_554  A
C1374      C1861   1.408       .  A
C1374      C1375   1.507       .  S
C1375      H1379   1.109       .  S
C1375      H1868   1.111       .  S
C1375      H1381   1.110       .  S
C1378      H1382   1.110       .  S
C1378      H1871   1.110       .  S
C1378      H1384   1.109       .  S
H1380      C1863   1.111   1_554  S
H1383      C1866   1.110       .  S
C1385      C1386   1.402       .  A
C1385      C1390   1.404       .  A
C1385      H1392   1.084       .  S
C1386      C1387   1.412   1_554  A
C1387      C1388   1.403       .  A
C1387      C1394   1.508       .  S
C1388      C1389   1.405   1_556  A
C1388      H1393   1.084       .  S
C1389      C1390   1.418       .  A
C1390      C1391   1.509       .  S
C1391      H1395   1.111       .  S
C1391      H1884   1.109       .  S
C1391      H1397   1.111       .  S
C1394      H1886   1.110       .  S
C1394      H1399   1.109       .  S
C1394      H1888   1.111       .  S
H1396      C1879   1.109       .  S
H1398      C1882   1.110       .  S
H1400      C1882   1.111       .  S
C1401      C1406   1.405       .  A
C1401      H1408   1.084       .  S
C1402      C1403   1.413       .  A
C1403      C1404   1.402       .  A
C1403      C1410   1.508       .  S
C1404      C1405   1.405       .  A
C1404      H1409   1.084       .  S
C1406      C1407   1.508       .  S
C1407      H1411   1.111       .  S
C1407      H1412   1.110       .  S
C1407      H1413   1.111       .  S
C1410      H1414   1.109       .  S
C1410      H1415   1.111       .  S
C1410      H1416   1.111       .  S
C1417      C1422   1.404       .  A
C1417      H1424   1.085       .  S
C1418      C1419   1.410       .  A
C1419      C1420   1.404       .  A
C1419      C1426   1.508       .  S
C1420      C1421   1.408       .  A
C1420      H1425   1.084       .  S
C1422      C1423   1.508       .  S
C1423      H1427   1.111       .  S
C1423      H1428   1.110       .  S
C1423      H1429   1.110       .  S
C1426      H1430   1.108       .  S
C1426      H1431   1.108       .  S
C1426      H1432   1.111       .  S
C1433      C1434   1.407       .  A
C1433      C1438   1.403       .  A
C1433      H1440   1.084       .  S
C1434      C1475   1.486       .  S
C1435      C1436   1.404       .  A
C1435      C1442   1.508       .  S
C1436      H1441   1.085       .  S
C1437      C1438   1.410       .  A
C1438      C1439   1.508       .  S
C1439      H1443   1.111       .  S
C1439      H1444   1.110       .  S
C1439      H1445   1.111       .  S
C1442      H1446   1.109       .  S
C1442      H1447   1.111       .  S
C1442      H1448   1.111       .  S
C1449      C1454   1.404       .  A
C1449      H1456   1.084       .  S
C1450      C1451   1.416   1_455  A
C1451      C1452   1.403       .  A
C1451      C1458   1.509       .  S
C1452      C1453   1.402   1_655  A
C1452      H1457   1.084       .  S
C1454      C1455   1.508       .  S
C1455      H1459   1.111       .  S
C1455      H1460   1.109       .  S
C1455      H1949   1.109       .  S
C1458      H1950   1.109       .  S
C1458      H1463   1.111       .  S
C1458      H1464   1.111       .  S
H1461      C1943   1.109       .  S
H1462      C1946   1.109       .  S
O1465     Cu1473   2.006   1_545  S
O1465      C1475   1.277       .  A
O1467     Cu1473   1.988   1_545  S
O1467      C1477   1.275       .  A
O1468      C1478   1.276   1_565  A
O1469     Cu1474   1.989       .  S
O1471     Cu1474   2.009   1_565  S
O1471      C1476   1.278   1_656  A
C1476      C1941   1.477       .  S
C1477      C1505   1.451   1_545  S
C1478      C1506   1.453       .  S
O1479     Cu1487   2.014   1_545  S
O1479      C1489   1.278       .  A
O1480     Cu1487   2.015       .  S
O1480      C1490   1.280       .  A
O1481     Cu1487   1.990       .  S
O1481      C1491   1.275       .  A
O1482      C1492   1.275   1_565  A
O1483      C1492   1.276       .  A
O1484     Cu1488   1.989   1_565  S
O1484      C1491   1.275       .  A
O1485     Cu1488   2.003   1_565  S
O1485      C1490   1.276       .  A
O1486     Cu1488   2.003       .  S
O1486      C1489   1.277       .  A
Cu1487    Cu1488   2.376   1_565  S
C1489      C1890   1.475       .  S
C1490      C1909   1.489       .  S
C1491      C1519   1.453       .  S
C1492      C1520   1.451       .  S
O1493     Cu1501   2.009       .  S
O1494     Cu1501   2.009   1_565  S
O1495     Cu1501   1.984       .  S
O1496     Cu1501   1.995       .  S
O1497     Cu1502   1.987   1_545  S
O1497      C1506   1.275       .  A
O1498     Cu1502   1.993       .  S
O1498      C1505   1.276       .  A
O1499     Cu1502   2.007       .  S
O1499      C1504   1.277       .  A
O1500     Cu1502   2.007   1_545  S
O1500      C1503   1.277       .  A
C1503      C1861   1.469       .  S
C1504      C1874   1.474       .  S
O1507     Cu1515   2.003   1_565  S
O1507      C1517   1.276       .  A
O1508     Cu1515   2.005       .  S
O1508      C1518   1.277       .  A
O1509     Cu1515   1.990   1_565  S
O1509      C1519   1.276       .  A
O1510     Cu1515   1.992       .  S
O1510      C1520   1.276       .  A
O1511     Cu1516   1.986       .  S
O1511      C1520   1.275   1_565  A
O1512     Cu1516   1.991   1_545  S
O1512      C1519   1.276   1_545  A
O1513     Cu1516   2.008   1_545  S
O1513      C1518   1.277       .  A
O1514     Cu1516   2.008       .  S
O1514      C1517   1.277       .  A
Cu1515    Cu1516   2.381   1_545  S
C1517      C1845   1.466       .  S
C1518      C1826   1.470       .  S
O1522     Cu1529   1.998       .  S
O1523     Cu1529   2.014       .  S
O1524     Cu1529   2.012   1_554  S
O1525     Cu1530   1.998       .  S
O1525      C1534   1.275       .  A
O1526     Cu1530   1.997   1_556  S
O1526      C1533   1.276   1_655  A
O1527     Cu1530   2.008   1_556  S
O1527      C1532   1.279   1_655  A
O1528      C1531   1.280   1_655  A
C1533      C1938   1.478       .  S
C1534      C1778   1.488       .  S
O1535     Cu1543   1.995       .  S
O1536     Cu1543   1.996       .  S
O1537     Cu1543   2.010       .  S
O1538     Cu1543   2.011       .  S
O1539     Cu1544   2.006       .  S
O1539      C1548   1.278       .  A
O1540     Cu1544   2.006       .  S
O1540      C1547   1.277       .  A
O1541     Cu1544   2.011       .  S
O1541      C1546   1.279       .  A
O1542     Cu1544   2.017       .  S
O1542      C1545   1.280       .  A
C1545      C1813   1.487       .  S
C1546      C1797   1.480       .  S
C1547      C1906   1.471       .  S
C1548      C1765   1.483       .  S
O1549      C1559   1.276       .  A
O1550     Cu1557   2.004       .  S
O1550      C1560   1.277       .  A
O1551     Cu1557   2.010       .  S
O1551      C1561   1.279       .  A
O1552     Cu1557   2.007       .  S
O1552      C1562   1.277       .  A
O1553     Cu1558   2.006       .  S
O1553      C1562   1.278       .  A
O1554     Cu1558   2.005       .  S
O1554      C1561   1.277       .  A
O1555     Cu1558   2.014       .  S
O1555      C1560   1.278       .  A
O1556      C1559   1.280       .  A
Cu1557    Cu1558   2.371       .  S
C1559      C1730   1.484       .  S
C1560      C1746   1.478       .  S
C1561      C1877   1.482       .  S
C1562      C1714   1.484       .  S
O1563     Cu1571   2.004       .  S
O1563      C1573   1.276       .  A
O1564     Cu1571   2.004       .  S
O1564      C1574   1.276       .  A
O1565     Cu1571   2.012       .  S
O1565      C1575   1.280       .  A
O1566     Cu1571   2.013       .  S
O1566      C1576   1.280       .  A
O1567     Cu1572   1.996       .  S
O1567      C1576   1.275       .  A
O1568     Cu1572   1.998       .  S
O1568      C1575   1.275       .  A
O1569     Cu1572   2.014       .  S
O1569      C1574   1.279       .  A
O1570     Cu1572   2.015       .  S
O1570      C1573   1.279       .  A
Cu1571    Cu1572   2.367       .  S
C1573      C1733   1.483       .  S
C1574      C1749   1.478       .  S
C1575      C1842   1.493       .  S
C1576      C1701   1.489       .  S
O1578     Cu1585   2.007   1_556  S
O1579     Cu1585   2.008       .  S
O1580     Cu1585   2.012       .  S
O1581      C1590   1.276       .  A
O1582      C1589   1.276   1_556  A
O1583      C1588   1.278       .  A
O1584     Cu1586   2.010       .  S
O1584      C1587   1.278       .  A
C1587      C1682   1.478       .  S
C1588      C1666   1.488       .  S
C1589      C1925   1.471       .  S
C1590      C1781   1.489       .  S
O1591     Cu1599   2.003       .  S
O1591      C1601   1.277       .  A
O1592     Cu1599   2.006       .  S
O1592      C1602   1.277       .  A
O1593     Cu1599   2.008       .  S
O1593      C1603   1.278       .  A
O1594     Cu1599   2.008       .  S
O1594      C1604   1.277       .  A
O1595     Cu1600   2.011       .  S
O1596     Cu1600   2.006       .  S
O1597     Cu1600   2.003       .  S
O1598     Cu1600   2.008       .  S
C1601      C1685   1.477       .  S
C1602      C1669   1.487       .  S
C1603      C1893   1.482       .  S
C1604      C1762   1.483       .  S
O1605      C1615   1.279       .  A
O1606     Cu1613   2.012       .  S
O1606      C1616   1.279       .  A
O1607     Cu1613   1.996       .  S
O1607      C1617   1.275       .  A
O1608     Cu1613   1.997       .  S
O1608      C1618   1.275       .  A
O1609     Cu1614   2.019       .  S
O1609      C1618   1.280       .  A
O1610     Cu1614   2.017       .  S
O1610      C1617   1.280       .  A
O1611     Cu1614   1.999       .  S
O1611      C1616   1.276       .  A
O1612      C1615   1.275       .  A
Cu1613    Cu1614   2.368       .  S
C1615      C1637   1.482       .  S
C1616      C1650   1.483       .  S
C1617      C1858   1.491       .  S
C1618      C1717   1.485       .  S
O1619     Cu1627   2.010       .  S
O1619      C1629   1.279       .  A
O1620     Cu1627   2.011       .  S
O1620      C1630   1.279       .  A
O1621     Cu1627   2.002       .  S
O1621      C1631   1.276       .  A
O1622     Cu1627   2.003       .  S
O1622      C1632   1.278       .  A
O1623     Cu1628   2.005       .  S
O1623      C1632   1.277       .  A
O1624     Cu1628   2.008       .  S
O1624      C1631   1.279       .  A
O1625     Cu1628   2.001       .  S
O1625      C1630   1.276       .  A
O1626     Cu1628   2.000       .  S
O1626      C1629   1.276       .  A
Cu1627    Cu1628   2.368       .  S
C1629      C1634   1.481       .  S
C1630      C1653   1.483       .  S
C1631      C1829   1.485       .  S
C1632      C1698   1.489       .  S
C1633      C1634   1.404       .  A
C1633      C1638   1.403       .  A
C1633      H1640   1.084       .  S
C1634      C1635   1.417       .  A
C1635      C1636   1.402       .  A
C1635      C1642   1.509       .  S
C1636      C1637   1.403       .  A
C1636      H1641   1.084       .  S
C1637      C1638   1.418       .  A
C1638      C1639   1.509       .  S
C1639      H1643   1.111       .  S
C1639      H1644   1.109       .  S
C1639      H1645   1.111       .  S
C1642      H1646   1.111       .  S
C1642      H1647   1.109       .  S
C1642      H1648   1.111       .  S
C1649      C1650   1.404       .  A
C1649      C1654   1.403       .  A
C1649      H1656   1.084       .  S
C1650      C1651   1.418       .  A
C1651      C1652   1.403       .  A
C1651      C1658   1.509       .  S
C1652      C1653   1.404       .  A
C1652      H1657   1.084       .  S
C1653      C1654   1.418       .  A
C1654      C1655   1.509       .  S
C1655      H1659   1.111       .  S
C1655      H1660   1.108       .  S
C1655      H1661   1.109       .  S
C1658      H1662   1.110       .  S
C1658      H1663   1.108       .  S
C1658      H1664   1.111       .  S
C1665      C1666   1.406       .  A
C1665      C1670   1.403       .  A
C1665      H1672   1.084       .  S
C1667      C1668   1.403       .  A
C1667      C1674   1.509       .  S
C1668      H1673   1.084       .  S
C1669      C1670   1.418       .  A
C1670      C1671   1.509       .  S
C1671      H1675   1.111       .  S
C1671      H1676   1.110       .  S
C1671      H1677   1.109       .  S
C1674      H1678   1.109       .  S
C1674      H1679   1.111       .  S
C1674      H1680   1.111       .  S
C1681      C1686   1.404       .  A
C1681      H1688   1.084       .  S
C1682      C1683   1.414       .  A
C1683      C1684   1.402       .  A
C1683      C1690   1.506       .  S
C1684      C1685   1.403       .  A
C1684      H1689   1.084       .  S
C1686      C1687   1.508       .  S
C1687      H1691   1.111       .  S
C1687      H1692   1.108       .  S
C1687      H1693   1.111       .  S
C1690      H1694   1.109       .  S
C1690      H1695   1.108       .  S
C1690      H1696   1.111       .  S
C1697      C1698   1.406       .  A
C1697      C1702   1.402       .  A
C1697      H1704   1.084       .  S
C1698      C1699   1.419       .  A
C1699      C1700   1.403       .  A
C1699      C1706   1.508       .  S
C1700      C1701   1.405       .  A
C1700      H1705   1.084       .  S
C1701      C1702   1.420       .  A
C1702      C1703   1.510       .  S
C1703      H1707   1.111       .  S
C1703      H1708   1.109       .  S
C1703      H1709   1.110       .  S
C1706      H1710   1.109       .  S
C1706      H1711   1.109       .  S
C1706      H1712   1.111       .  S
C1713      C1714   1.404       .  A
C1713      C1718   1.403       .  A
C1713      H1720   1.084       .  S
C1714      C1715   1.417       .  A
C1715      C1716   1.404       .  A
C1716      C1717   1.404       .  A
C1717      C1718   1.418       .  A
C1718      C1719   1.509       .  S
C1719      H1723   1.111       .  S
C1719      H1725   1.111       .  S
C1722      H1726   1.111       .  S
C1722      H1728   1.111       .  S
C1729      C1730   1.404       .  A
C1729      C1734   1.404       .  A
C1729      H1736   1.084       .  S
C1730      C1731   1.418       .  A
C1731      C1732   1.405       .  A
C1731      C1738   1.509       .  S
C1732      C1733   1.404       .  A
C1732      H1737   1.084       .  S
C1733      C1734   1.417       .  A
C1734      C1735   1.510       .  S
C1735      H1739   1.111       .  S
C1735      H1740   1.107       .  S
C1735      H1741   1.111       .  S
C1738      H1742   1.111       .  S
C1738      H1743   1.108       .  S
C1738      H1744   1.111       .  S
C1745      C1746   1.403       .  A
C1745      C1750   1.405       .  A
C1745      H1752   1.084       .  S
C1746      C1747   1.415       .  A
C1747      C1748   1.404       .  A
C1747      C1754   1.509       .  S
C1748      C1749   1.403       .  A
C1748      H1753   1.084       .  S
C1749      C1750   1.415       .  A
C1750      C1751   1.509       .  S
C1751      H1755   1.111       .  S
C1751      H1756   1.108       .  S
C1751      H1757   1.111       .  S
C1754      H1758   1.111       .  S
C1754      H1759   1.108       .  S
C1754      H1760   1.111       .  S
C1761      C1766   1.404       .  A
C1761      H1768   1.084       .  S
C1762      C1763   1.416       .  A
C1763      C1764   1.405       .  A
C1763      C1770   1.508       .  S
C1764      C1765   1.405       .  A
C1764      H1769   1.084       .  S
C1766      C1767   1.509       .  S
C1767      H1771   1.111       .  S
C1767      H1772   1.109       .  S
C1767      H1773   1.111       .  S
C1770      H1774   1.111       .  S
C1770      H1775   1.109       .  S
C1770      H1776   1.111       .  S
C1777      C1782   1.403       .  A
C1777      H1784   1.083       .  S
C1778      C1779   1.420   1_554  A
C1779      C1780   1.404       .  A
C1779      C1786   1.510       .  S
C1780      H1785   1.084       .  S
C1782      C1783   1.508       .  S
C1783      H1787   1.111       .  S
C1783      H1789   1.107       .  S
C1786      H1790   1.111       .  S
C1786      H1792   1.111       .  S
C1793      C1798   1.402       .  A
C1793      H1800   1.084       .  S
C1794      C1795   1.416       .  A
C1795      C1796   1.403       .  A
C1795      C1802   1.510       .  S
C1796      C1797   1.404       .  A
C1796      H1801   1.084       .  S
C1798      C1799   1.510       .  S
C1799      H1803   1.111       .  S
C1799      H1804   1.107       .  S
C1799      H1805   1.108       .  S
C1802      H1806   1.111       .  S
C1802      H1807   1.108       .  S
C1802      H1808   1.111       .  S
C1809      C1814   1.402       .  A
C1809      H1816   1.084       .  S
C1810      C1811   1.419       .  A
C1811      C1812   1.405       .  A
C1811      C1818   1.510       .  S
C1812      C1813   1.405       .  A
C1812      H1817   1.084       .  S
C1814      C1815   1.510       .  S
C1815      H1819   1.111       .  S
C1815      H1820   1.108       .  S
C1815      H1821   1.110       .  S
C1818      H1822   1.111       .  S
C1818      H1823   1.108       .  S
C1818      H1824   1.111       .  S
C1825      C1826   1.400       .  A
C1825      C1830   1.404       .  A
C1825      H1832   1.085       .  S
C1826      C1827   1.410       .  A
C1827      C1828   1.402       .  A
C1827      C1834   1.508       .  S
C1828      C1829   1.407       .  A
C1828      H1833   1.084       .  S
C1829      C1830   1.421       .  A
C1830      C1831   1.509       .  S
C1831      H1835   1.111       .  S
C1831      H1836   1.110       .  S
C1831      H1837   1.111       .  S
C1834      H1838   1.110       .  S
C1834      H1839   1.111       .  S
C1834      H1840   1.111       .  S
C1841      C1842   1.411       .  A
C1841      C1846   1.403       .  A
C1841      H1848   1.084       .  S
C1842      C1843   1.426       .  A
C1843      C1844   1.403       .  A
C1843      C1850   1.509       .  S
C1844      C1845   1.396       .  A
C1844      H1849   1.085       .  S
C1845      C1846   1.407       .  A
C1846      C1847   1.508       .  S
C1847      H1851   1.111       .  S
C1847      H1852   1.110       .  S
C1847      H1853   1.110       .  S
C1850      H1854   1.109       .  S
C1850      H1855   1.110       .  S
C1850      H1856   1.111       .  S
C1857      C1862   1.404       .  A
C1857      H1864   1.084       .  S
C1858      C1859   1.424       .  A
C1859      C1860   1.404       .  A
C1859      C1866   1.508       .  S
C1860      C1861   1.397       .  A
C1860      H1865   1.085       .  S
C1862      C1863   1.507       .  S
C1863      H1867   1.109       .  S
C1863      H1869   1.110       .  S
C1866      H1870   1.110       .  S
C1866      H1872   1.109       .  S
C1873      C1874   1.402       .  A
C1873      C1878   1.404       .  A
C1873      H1880   1.084       .  S
C1874      C1875   1.412       .  A
C1875      C1876   1.403       .  A
C1875      C1882   1.508       .  S
C1876      C1877   1.405       .  A
C1876      H1881   1.084       .  S
C1877      C1878   1.418       .  A
C1878      C1879   1.509       .  S
C1879      H1883   1.111       .  S
C1879      H1885   1.111       .  S
C1882      H1887   1.109       .  S
C1889      C1894   1.405       .  A
C1889      H1896   1.084       .  S
C1890      C1891   1.413       .  A
C1891      C1892   1.402       .  A
C1891      C1898   1.508       .  S
C1892      C1893   1.405       .  A
C1892      H1897   1.084       .  S
C1894      C1895   1.508       .  S
C1895      H1899   1.111       .  S
C1895      H1900   1.110       .  S
C1895      H1901   1.111       .  S
C1898      H1902   1.109       .  S
C1898      H1903   1.111       .  S
C1898      H1904   1.111       .  S
C1905      C1910   1.404       .  A
C1905      H1912   1.085       .  S
C1906      C1907   1.410       .  A
C1907      C1908   1.404       .  A
C1907      C1914   1.508       .  S
C1908      C1909   1.408       .  A
C1908      H1913   1.084       .  S
C1910      C1911   1.508       .  S
C1911      H1915   1.111       .  S
C1911      H1916   1.110       .  S
C1911      H1917   1.110       .  S
C1914      H1918   1.108       .  S
C1914      H1919   1.108       .  S
C1914      H1920   1.111       .  S
C1921      C1922   1.407   1_556  A
C1921      C1926   1.403       .  A
C1921      H1928   1.084       .  S
C1923      C1924   1.404       .  A
C1923      C1930   1.508       .  S
C1924      H1929   1.085       .  S
C1925      C1926   1.410   1_554  A
C1926      C1927   1.508       .  S
C1927      H1931   1.111       .  S
C1927      H1932   1.110       .  S
C1927      H1933   1.111       .  S
C1930      H1934   1.109       .  S
C1930      H1935   1.111       .  S
C1930      H1936   1.111       .  S
C1937      C1942   1.404       .  A
C1937      H1944   1.084       .  S
C1938      C1939   1.416   1_455  A
C1939      C1940   1.403       .  A
C1939      C1946   1.509       .  S
C1940      C1941   1.402   1_656  A
C1940      H1945   1.084       .  S
C1942      C1943   1.508       .  S
C1943      H1947   1.111       .  S
C1943      H1948   1.109       .  S
C1946      H1951   1.111       .  S
C1946      H1952   1.111       .  S
